data_RAKSUR.updated
_audit_creation_date              2015-05-21
_audit_creation_method            'Materials Studio'
_symmetry_space_group_name_H-M    'P-43N'
_symmetry_Int_Tables_number       218
_symmetry_cell_setting            cubic
loop_
_symmetry_equiv_pos_as_xyz
  x,y,z
  -x,-y,z
  -x,y,-z
  x,-y,-z
  z,x,y
  z,-x,-y
  -z,-x,y
  -z,x,-y
  y,z,x
  -y,z,-x
  y,-z,-x
  -y,-z,x
  y+1/2,x+1/2,z+1/2
  -y+1/2,-x+1/2,z+1/2
  y+1/2,-x+1/2,-z+1/2
  -y+1/2,x+1/2,-z+1/2
  x+1/2,z+1/2,y+1/2
  -x+1/2,z+1/2,-y+1/2
  -x+1/2,-z+1/2,y+1/2
  x+1/2,-z+1/2,-y+1/2
  z+1/2,y+1/2,x+1/2
  z+1/2,-y+1/2,-x+1/2
  -z+1/2,y+1/2,-x+1/2
  -z+1/2,-y+1/2,x+1/2
_cell_length_a                    17.0971
_cell_length_b                    17.0971
_cell_length_c                    17.0971
_cell_angle_alpha                 90.0000
_cell_angle_beta                  90.0000
_cell_angle_gamma                 90.0000
loop_
_atom_site_label
_atom_site_type_symbol
_atom_site_fract_x
_atom_site_fract_y
_atom_site_fract_z
_atom_site_U_iso_or_equiv
_atom_site_adp_type
_atom_site_occupancy
F1     F     0.74828  -0.06179   0.83224   0.00000  Uiso   1.00
F2     F     0.76884   0.06563   0.80729   0.00000  Uiso   1.00
F3     F     0.83760  -0.02635   0.74282   0.00000  Uiso   1.00
C1     C     0.59002  -0.00482   0.59097   0.00000  Uiso   1.00
C2     C     0.58125  -0.05397   0.65607   0.00000  Uiso   1.00
C3     C     0.63841  -0.05714   0.71431   0.00000  Uiso   1.00
C4     C     0.70455  -0.00864   0.71031   0.00000  Uiso   1.00
C5     C     0.71316   0.04128   0.64583   0.00000  Uiso   1.00
C6     C     0.65726   0.04199   0.58625   0.00000  Uiso   1.00
C7     C     0.76537  -0.00809   0.77414   0.00000  Uiso   1.00
H1     H     0.53001  -0.08987   0.66231   0.00000  Uiso   1.00
H2     H     0.62971  -0.09618   0.76330   0.00000  Uiso   1.00
H3     H     0.76367   0.07927   0.64133   0.00000  Uiso   1.00
H4     H     0.66644   0.07968   0.53676   0.00000  Uiso   1.00
H5?    H     0.56142   0.13207   0.48091   0.00000  Uiso   1.00
H6?    H     0.46852   0.12685   0.44432   0.00000  Uiso   1.00
H7?    H     0.48475   0.18121   0.53872   0.00000  Uiso   1.00
Te1    Te    0.50000   0.00000   0.50000   0.00000  Uiso   1.00
C8     C     0.50000   0.13148   0.50000   0.00000  Uiso   1.00
loop_
_geom_bond_atom_site_label_1
_geom_bond_atom_site_label_2
_geom_bond_distance
_geom_bond_site_symmetry_2
_ccdc_geom_bond_type
F1     C7      1.384   .     S
F2     C7      1.383   .     S
F3     C7      1.382   .     S
C1     C2      1.403   .     D
C1     C6      1.403   .     S
C1     Te1     2.190   .     S
C2     C3      1.396   .     S
C2     H1      1.075   .     S
C3     C4      1.404   .     D
C3     H2      1.081   .     S
C4     C5      1.402   .     S
C4     C7      1.508   .     S
C5     C6      1.397   .     D
C5     H3      1.083   .     S
C6     H4      1.075   .     S
H5?    C8      1.100   .     S
H6?    C8      1.096   .     S
H7?    C8      1.109   .     S
Te1    C1      2.190   2_655 S
Te1    C1      2.190   3_656 S
Te1    C1      2.190   4_556 S
Te1    C8      2.248   .     S
Te1    C8      2.248   2_655 S
C8     H5?     1.100   3_656 S
C8     H6?     1.096   3_656 S
C8     H7?     1.109   3_656 S
