data_ZEXRIF02.updated
_audit_creation_date              2015-05-21
_audit_creation_method            'Materials Studio'
_symmetry_space_group_name_H-M    'R32'
_symmetry_Int_Tables_number       155
_symmetry_cell_setting            trigonal
loop_
_symmetry_equiv_pos_as_xyz
  x,y,z
  -y,x-y,z
  -x+y,-x,z
  y,x,-z
  x-y,-y,-z
  -x,-x+y,-z
  x+2/3,y+1/3,z+1/3
  -y+2/3,x-y+1/3,z+1/3
  -x+y+2/3,-x+1/3,z+1/3
  y+2/3,x+1/3,-z+1/3
  x-y+2/3,-y+1/3,-z+1/3
  -x+2/3,-x+y+1/3,-z+1/3
  x+1/3,y+2/3,z+2/3
  -y+1/3,x-y+2/3,z+2/3
  -x+y+1/3,-x+2/3,z+2/3
  y+1/3,x+2/3,-z+2/3
  x-y+1/3,-y+2/3,-z+2/3
  -x+1/3,-x+y+2/3,-z+2/3
_cell_length_a                    20.5978
_cell_length_b                    20.5978
_cell_length_c                    32.8021
_cell_angle_alpha                 90.0000
_cell_angle_beta                  90.0000
_cell_angle_gamma                 120.0000
loop_
_atom_site_label
_atom_site_type_symbol
_atom_site_fract_x
_atom_site_fract_y
_atom_site_fract_z
_atom_site_U_iso_or_equiv
_atom_site_adp_type
_atom_site_occupancy
N1     N     0.72137   0.79376   0.86052   0.00000  Uiso   1.00
C1     C     0.77043   0.85162   0.88843   0.00000  Uiso   1.00
C2     C     0.76064   0.84002   0.93078   0.00000  Uiso   1.00
H1     H     0.71371   0.78921   0.94266   0.00000  Uiso   1.00
C3     C     0.81148   0.89385   0.95791   0.00000  Uiso   1.00
H2     H     0.80355   0.88458   0.99046   0.00000  Uiso   1.00
C4     C     0.87289   0.95930   0.94297   0.00000  Uiso   1.00
H3     H     0.91274   1.00087   0.96374   0.00000  Uiso   1.00
C5     C     0.88311   0.97116   0.90101   0.00000  Uiso   1.00
H4     H     0.93078   1.02166   0.88948   0.00000  Uiso   1.00
C6     C     0.83186   0.91800   0.87385   0.00000  Uiso   1.00
H5     H     0.84123   0.92775   0.84151   0.00000  Uiso   1.00
C8     C     0.70613   0.93690   0.80179   0.00000  Uiso   1.00
C9     C     0.70814   1.00582   0.80230   0.00000  Uiso   1.00
H6     H     0.73940   1.04790   0.77934   0.00000  Uiso   1.00
C11    C     0.74522   0.92175   0.76728   0.00000  Uiso   1.00
H7     H     0.78376   0.90330   0.77911   0.00000  Uiso   1.00
H8     H     0.77874   0.97239   0.74826   0.00000  Uiso   1.00
H9     H     0.70317   0.87745   0.74727   0.00000  Uiso   1.00
C13    C     0.78325   0.71185   0.88437   0.00000  Uiso   1.00
C14    C     0.85809   0.74261   0.87030   0.00000  Uiso   1.00
C15    C     0.90988   0.73353   0.89379   0.00000  Uiso   1.00
H10    H     0.96710   0.75668   0.88336   0.00000  Uiso   1.00
C16    C     0.88924   0.69569   0.93101   0.00000  Uiso   1.00
C17    C     0.81542   0.66459   0.94467   0.00000  Uiso   1.00
H11    H     0.79933   0.63476   0.97346   0.00000  Uiso   1.00
C18    C     0.76181   0.67141   0.92169   0.00000  Uiso   1.00
C19    C     0.88392   0.78449   0.83038   0.00000  Uiso   1.00
H12    H     0.94403   0.80465   0.82449   0.00000  Uiso   1.00
H13    H     0.87660   0.83410   0.83073   0.00000  Uiso   1.00
H14    H     0.85125   0.74776   0.80470   0.00000  Uiso   1.00
C20    C     0.68338   0.63501   0.93886   0.00000  Uiso   1.00
H15    H     0.64381   0.64450   0.92049   0.00000  Uiso   1.00
H16    H     0.68557   0.65786   0.96962   0.00000  Uiso   1.00
H17    H     0.66052   0.57362   0.94147   0.00000  Uiso   1.00
C21    C     0.94654   0.68912   0.95597   0.00000  Uiso   1.00
H18    H     0.92312   0.66144   0.98569   0.00000  Uiso   1.00
H19    H     0.99495   0.74593   0.96167   0.00000  Uiso   1.00
H20    H     0.96617   0.65537   0.93933   0.00000  Uiso   1.00
C23    C     0.61251   0.52458   0.85564   0.00000  Uiso   1.00
H21    H     0.57097   0.52942   0.87337   0.00000  Uiso   1.00
C24    C     0.61272   0.45690   0.85572   0.00000  Uiso   1.00
H22    H     0.57123   0.40979   0.87318   0.00000  Uiso   1.00
B2     B     0.72416   0.72147   0.85813   0.00000  Uiso   1.00
N2     N     0.66667   0.65579   0.83333   0.00000  Uiso   1.00
C7     C     0.66667   0.88168   0.83333   0.00000  Uiso   1.00
C10    C     0.66667   1.02130   0.83333   0.00000  Uiso   1.00
C12    C     0.66667   1.08567   0.83333   0.00000  Uiso   1.00
C22    C     0.66667   0.58605   0.83333   0.00000  Uiso   1.00
C25    C     0.66667   0.45011   0.83333   0.00000  Uiso   1.00
H23    H     0.66667   0.39786   0.83333   0.00000  Uiso   1.00
B1     B     0.66667   0.80335   0.83333   0.00000  Uiso   1.00
loop_
_geom_bond_atom_site_label_1
_geom_bond_atom_site_label_2
_geom_bond_distance
_geom_bond_site_symmetry_2
_ccdc_geom_bond_type
N1     C1      1.441   .     S
N1     B2      1.521   .     S
N1     B1      1.525   .     S
C1     C2      1.407   .     S
C1     C6      1.403   .     D
C2     H1      1.082   .     S
C2     C3      1.399   .     D
C3     H2      1.083   .     S
C3     C4      1.397   .     S
C4     H3      1.081   .     S
C4     C5      1.395   .     D
C5     H4      1.081   .     S
C5     C6      1.397   .     S
C6     H5      1.079   .     S
C8     C9      1.400   .     D
C8     C11     1.509   .     S
C8     C7      1.449   .     S
C9     H6      1.084   .     S
C9     C10     1.463   .     S
C11    H7      1.108   .     S
C11    H8      1.111   .     S
C11    H9      1.106   .     S
C13    C14     1.419   .     D
C13    C18     1.421   .     S
C13    B2      1.582   .     S
C14    C15     1.402   .     S
C14    C19     1.511   .     S
C15    H10     1.082   .     S
C15    C16     1.395   .     D
C16    C17     1.396   .     S
C16    C21     1.497   .     S
C17    H11     1.084   .     S
C17    C18     1.401   .     D
C18    C20     1.509   .     S
C19    H12     1.109   .     S
C19    H13     1.105   .     S
C19    H14     1.107   .     S
C20    H15     1.107   .     S
C20    H16     1.105   .     S
C20    H17     1.110   .     S
C21    H18     1.111   .     S
C21    H19     1.110   .     S
C21    H20     1.107   .     S
C23    H21     1.080   .     S
C23    C24     1.396   .     A
C23    C22     1.404   .     A
C24    H22     1.082   .     S
C24    C25     1.396   .     A
B2     N2      1.514   .     S
N2     B2      1.514   18_656 S
N2     C22     1.437   .     S
C7     C8      1.449   18_656 S
C7     B1      1.613   .     S
C10    C9      1.463   18_656 S
C10    C12     1.326   .     D
C22    C23     1.404   18_656 A
C25    C24     1.396   18_656 A
C25    H23     1.076   .     S
B1     N1      1.525   18_656 S
