data_VAKPUU.search1
_audit_creation_date              2015-05-21
_audit_creation_method            'Materials Studio'
_symmetry_space_group_name_H-M    'R-3'
_symmetry_Int_Tables_number       148
_symmetry_cell_setting            trigonal
loop_
_symmetry_equiv_pos_as_xyz
  x,y,z
  -y,x-y,z
  -x+y,-x,z
  -x,-y,-z
  y,-x+y,-z
  x-y,x,-z
  x+2/3,y+1/3,z+1/3
  -y+2/3,x-y+1/3,z+1/3
  -x+y+2/3,-x+1/3,z+1/3
  -x+2/3,-y+1/3,-z+1/3
  y+2/3,-x+y+1/3,-z+1/3
  x-y+2/3,x+1/3,-z+1/3
  x+1/3,y+2/3,z+2/3
  -y+1/3,x-y+2/3,z+2/3
  -x+y+1/3,-x+2/3,z+2/3
  -x+1/3,-y+2/3,-z+2/3
  y+1/3,-x+y+2/3,-z+2/3
  x-y+1/3,x+2/3,-z+2/3
_cell_length_a                    63.2540
_cell_length_b                    63.2540
_cell_length_c                    9.8446
_cell_angle_alpha                 90.0000
_cell_angle_beta                  90.0000
_cell_angle_gamma                 120.0000
loop_
_atom_site_label
_atom_site_type_symbol
_atom_site_fract_x
_atom_site_fract_y
_atom_site_fract_z
_atom_site_U_iso_or_equiv
_atom_site_adp_type
_atom_site_occupancy
O1     O     0.15368   0.86263   0.87557   0.00000  Uiso   1.00
O2     O     0.20287   0.89106   0.89606   0.00000  Uiso   1.00
O3     O     0.25858   1.01641   0.81447   0.00000  Uiso   1.00
O4     O     0.23240   1.03851   0.75512   0.00000  Uiso   1.00
O5     O     0.11485   0.97270   0.76281   0.00000  Uiso   1.00
O6     O     0.09594   0.92551   0.83240   0.00000  Uiso   1.00
O7     O     0.11576   0.87271   0.24164   0.00000  Uiso   1.00
O8     O     0.09232   0.89567   0.33557   0.00000  Uiso   1.00
O9     O     0.25287   0.98273   0.29446   0.00000  Uiso   1.00
O10    O     0.22907   0.93462   0.23623   0.00000  Uiso   1.00
O11    O     0.19624   1.05033   0.37855   0.00000  Uiso   1.00
O12    O     0.14698   1.02643   0.38387   0.00000  Uiso   1.00
N1     N     0.10210   0.78903   1.15323   0.00000  Uiso   1.00
N2     N     0.33714   1.05408   1.06729   0.00000  Uiso   1.00
N3     N     0.09853   1.03034   1.02955   0.00000  Uiso   1.00
N4     N     0.11617   0.80793   0.53100   0.00000  Uiso   1.00
N5     N     0.32929   1.02783   0.56542   0.00000  Uiso   1.00
N6     N     0.10259   1.06222   0.60175   0.00000  Uiso   1.00
C1     C     0.14987   0.91446   0.50683   0.00000  Uiso   1.00
H1     H     0.13298   0.89721   0.48025   0.00000  Uiso   1.00
H2     H     0.15860   0.92089   0.40701   0.00000  Uiso   1.00
C2     C     0.16512   0.90885   0.60264   0.00000  Uiso   1.00
C3     C     0.15296   0.88812   0.68569   0.00000  Uiso   1.00
H3     H     0.13349   0.87661   0.67272   0.00000  Uiso   1.00
C4     C     0.16549   0.88256   0.78521   0.00000  Uiso   1.00
C5     C     0.19084   0.89764   0.79831   0.00000  Uiso   1.00
C6     C     0.20316   0.91822   0.71311   0.00000  Uiso   1.00
H4     H     0.22265   0.92987   0.72099   0.00000  Uiso   1.00
C7     C     0.19071   0.92398   0.61520   0.00000  Uiso   1.00
C8     C     0.20570   0.94517   0.52064   0.00000  Uiso   1.00
H5     H     0.19750   0.94218   0.41922   0.00000  Uiso   1.00
H6     H     0.22324   0.94577   0.49855   0.00000  Uiso   1.00
C9     C     0.21127   0.96942   0.58067   0.00000  Uiso   1.00
C10    C     0.23132   0.98103   0.66897   0.00000  Uiso   1.00
H7     H     0.24138   0.97184   0.69191   0.00000  Uiso   1.00
C11    C     0.23849   1.00415   0.72540   0.00000  Uiso   1.00
C12    C     0.22517   1.01575   0.69324   0.00000  Uiso   1.00
C13    C     0.20536   1.00442   0.60232   0.00000  Uiso   1.00
H8     H     0.19524   1.01337   0.57489   0.00000  Uiso   1.00
C14    C     0.19816   0.98138   0.54585   0.00000  Uiso   1.00
C15    C     0.17571   0.97000   0.45582   0.00000  Uiso   1.00
H9     H     0.17471   0.98471   0.40047   0.00000  Uiso   1.00
H10    H     0.17680   0.95920   0.37114   0.00000  Uiso   1.00
C16    C     0.15302   0.95635   0.54198   0.00000  Uiso   1.00
C17    C     0.14350   0.96999   0.60195   0.00000  Uiso   1.00
H11    H     0.15149   0.98904   0.57549   0.00000  Uiso   1.00
C18    C     0.12432   0.95945   0.69677   0.00000  Uiso   1.00
C19    C     0.11420   0.93479   0.73111   0.00000  Uiso   1.00
C20    C     0.12300   0.92077   0.66728   0.00000  Uiso   1.00
H12    H     0.11497   0.90156   0.68985   0.00000  Uiso   1.00
C21    C     0.14224   0.93118   0.57290   0.00000  Uiso   1.00
C22    C     0.12826   0.84568   0.85534   0.00000  Uiso   1.00
H13    H     0.12543   0.83716   0.75349   0.00000  Uiso   1.00
H14    H     0.11767   0.85535   0.86352   0.00000  Uiso   1.00
C23    C     0.11914   0.82578   0.96022   0.00000  Uiso   1.00
C24    C     0.09619   0.81725   1.02072   0.00000  Uiso   1.00
H15    H     0.08477   0.82486   0.99329   0.00000  Uiso   1.00
C25    C     0.08790   0.79861   1.11715   0.00000  Uiso   1.00
H16    H     0.07024   0.79188   1.16422   0.00000  Uiso   1.00
C26    C     0.12439   0.79693   1.09644   0.00000  Uiso   1.00
H17    H     0.13521   0.78887   1.12730   0.00000  Uiso   1.00
C27    C     0.13319   0.81521   0.99760   0.00000  Uiso   1.00
H18    H     0.15083   0.82116   0.95145   0.00000  Uiso   1.00
C28    C     0.22894   0.90469   0.90107   0.00000  Uiso   1.00
H19    H     0.23677   0.90327   0.80293   0.00000  Uiso   1.00
H20    H     0.23548   0.89701   0.98075   0.00000  Uiso   1.00
H21    H     0.23547   0.92404   0.92811   0.00000  Uiso   1.00
C29    C     0.27326   1.00553   0.84251   0.00000  Uiso   1.00
H22    H     0.28012   1.00202   0.74607   0.00000  Uiso   1.00
H23    H     0.26221   0.98799   0.89768   0.00000  Uiso   1.00
C30    C     0.29516   1.02275   0.92491   0.00000  Uiso   1.00
C31    C     0.30064   1.01535   1.04793   0.00000  Uiso   1.00
H24    H     0.28882   0.99723   1.08802   0.00000  Uiso   1.00
C32    C     0.32186   1.03150   1.11847   0.00000  Uiso   1.00
H25    H     0.32632   1.02600   1.21323   0.00000  Uiso   1.00
C33    C     0.33225   1.06168   0.94827   0.00000  Uiso   1.00
H26    H     0.34475   1.07968   0.90949   0.00000  Uiso   1.00
C34    C     0.31116   1.04622   0.87543   0.00000  Uiso   1.00
H27    H     0.30736   1.05244   0.78110   0.00000  Uiso   1.00
C35    C     0.21550   1.04729   0.75584   0.00000  Uiso   1.00
H28    H     0.21295   1.05239   0.65191   0.00000  Uiso   1.00
H29    H     0.22301   1.06390   0.82002   0.00000  Uiso   1.00
H30    H     0.19771   1.03346   0.79978   0.00000  Uiso   1.00
C36    C     0.12966   0.99871   0.77007   0.00000  Uiso   1.00
H31    H     0.13156   1.00685   0.66773   0.00000  Uiso   1.00
H32    H     0.14806   1.00377   0.80977   0.00000  Uiso   1.00
C37    C     0.11844   1.00929   0.86364   0.00000  Uiso   1.00
C38    C     0.13182   1.03416   0.89636   0.00000  Uiso   1.00
H33    H     0.15016   1.04542   0.85795   0.00000  Uiso   1.00
C39    C     0.12143   1.04445   0.97935   0.00000  Uiso   1.00
H34    H     0.13157   1.06369   1.00369   0.00000  Uiso   1.00
C40    C     0.08518   1.00610   1.00106   0.00000  Uiso   1.00
H35    H     0.06701   0.99534   1.04276   0.00000  Uiso   1.00
C41    C     0.09480   0.99512   0.91746   0.00000  Uiso   1.00
H36    H     0.08372   0.97588   0.89458   0.00000  Uiso   1.00
C42    C     0.08521   0.90043   0.86942   0.00000  Uiso   1.00
H37    H     0.07569   0.88875   0.78104   0.00000  Uiso   1.00
H38    H     0.07157   0.89631   0.95057   0.00000  Uiso   1.00
H39    H     0.09920   0.89636   0.90929   0.00000  Uiso   1.00
C43    C     0.14089   0.96721   0.03304   0.00000  Uiso   1.00
H40    H     0.14829   0.97055  -0.07017   0.00000  Uiso   1.00
H41    H     0.12300   0.96625   0.01806   0.00000  Uiso   1.00
C44    C     0.13598   0.94288   0.08879   0.00000  Uiso   1.00
C45    C     0.11742   0.93139   0.18645   0.00000  Uiso   1.00
H42    H     0.10837   0.94098   0.22227   0.00000  Uiso   1.00
C46    C     0.11042   0.90780   0.23552   0.00000  Uiso   1.00
C47    C     0.12219   0.89565   0.18583   0.00000  Uiso   1.00
C48    C     0.14015   0.90667   0.08506   0.00000  Uiso   1.00
H43    H     0.14876   0.89698   0.04442   0.00000  Uiso   1.00
C49    C     0.14752   0.93027   0.03729   0.00000  Uiso   1.00
C50    C     0.16929   0.94189  -0.05689   0.00000  Uiso   1.00
H44    H     0.16805   0.95357  -0.13570   0.00000  Uiso   1.00
H45    H     0.16968   0.92750  -0.11912   0.00000  Uiso   1.00
C51    C     0.19233   0.95436   0.02716   0.00000  Uiso   1.00
C52    C     0.20083   0.93957   0.08350   0.00000  Uiso   1.00
H46    H     0.19159   0.92046   0.05747   0.00000  Uiso   1.00
C53    C     0.22068   0.94910   0.17376   0.00000  Uiso   1.00
C54    C     0.23280   0.97400   0.20527   0.00000  Uiso   1.00
C55    C     0.22438   0.98892   0.14919   0.00000  Uiso   1.00
H47    H     0.23334   1.00812   0.17326   0.00000  Uiso   1.00
C56    C     0.20421   0.97943   0.06146   0.00000  Uiso   1.00
C57    C     0.19663   0.99698   0.00715   0.00000  Uiso   1.00
H48    H     0.18718   0.99155  -0.09145   0.00000  Uiso   1.00
H49    H     0.21351   1.01422  -0.01941   0.00000  Uiso   1.00
C58    C     0.18250   1.00243   0.11201   0.00000  Uiso   1.00
C59    C     0.19568   1.02278   0.19697   0.00000  Uiso   1.00
H50    H     0.21532   1.03305   0.18740   0.00000  Uiso   1.00
C60    C     0.18378   1.03008   0.29107   0.00000  Uiso   1.00
C61    C     0.15824   1.01714   0.29773   0.00000  Uiso   1.00
C62    C     0.14499   0.99611   0.21711   0.00000  Uiso   1.00
H51    H     0.12531   0.98564   0.22327   0.00000  Uiso   1.00
C63    C     0.15674   0.98852   0.12473   0.00000  Uiso   1.00
C64    C     0.13502   0.86719   0.25698   0.00000  Uiso   1.00
H52    H     0.15166   0.88342   0.29675   0.00000  Uiso   1.00
H53    H     0.13945   0.86208   0.15775   0.00000  Uiso   1.00
C65    C     0.12800   0.84645   0.35498   0.00000  Uiso   1.00
C66    C     0.10379   0.83137   0.39791   0.00000  Uiso   1.00
H54    H     0.08924   0.83416   0.36209   0.00000  Uiso   1.00
C67    C     0.09823   0.81207   0.48654   0.00000  Uiso   1.00
H55    H     0.07961   0.80031   0.51956   0.00000  Uiso   1.00
C68    C     0.13976   0.82227   0.49204   0.00000  Uiso   1.00
H56    H     0.15357   0.81842   0.52933   0.00000  Uiso   1.00
C69    C     0.14609   0.84179   0.40353   0.00000  Uiso   1.00
H57    H     0.16492   0.85320   0.37308   0.00000  Uiso   1.00
C70    C     0.08197   0.90862   0.39945   0.00000  Uiso   1.00
H58    H     0.09640   0.92555   0.44792   0.00000  Uiso   1.00
H59    H     0.06919   0.89690   0.47956   0.00000  Uiso   1.00
H60    H     0.07160   0.91307   0.32527   0.00000  Uiso   1.00
C71    C     0.26444   1.00762   0.33794   0.00000  Uiso   1.00
H61    H     0.25142   1.01083   0.39803   0.00000  Uiso   1.00
H62    H     0.27079   1.01989   0.24806   0.00000  Uiso   1.00
C72    C     0.28655   1.01404   0.42327   0.00000  Uiso   1.00
C73    C     0.29312   0.99662   0.46014   0.00000  Uiso   1.00
H63    H     0.28183   0.97758   0.43375   0.00000  Uiso   1.00
C74    C     0.31486   1.00404   0.53055   0.00000  Uiso   1.00
H64    H     0.32035   0.99091   0.55677   0.00000  Uiso   1.00
C75    C     0.32317   1.04495   0.53329   0.00000  Uiso   1.00
H65    H     0.33485   1.06364   0.56386   0.00000  Uiso   1.00
C76    C     0.30171   1.03840   0.46202   0.00000  Uiso   1.00
H66    H     0.29715   1.05225   0.43531   0.00000  Uiso   1.00
C77    C     0.21212   0.90924   0.25539   0.00000  Uiso   1.00
H67    H     0.19581   0.90660   0.31208   0.00000  Uiso   1.00
H68    H     0.22114   0.90122   0.31566   0.00000  Uiso   1.00
H69    H     0.20666   0.89940   0.15745   0.00000  Uiso   1.00
C78    C     0.12141   1.01730   0.36778   0.00000  Uiso   1.00
H70    H     0.11120   0.99810   0.40156   0.00000  Uiso   1.00
H71    H     0.11697   1.01827   0.25951   0.00000  Uiso   1.00
C79    C     0.11420   1.03265   0.44950   0.00000  Uiso   1.00
C80    C     0.09866   1.02317   0.56227   0.00000  Uiso   1.00
H72    H     0.09116   1.00433   0.59253   0.00000  Uiso   1.00
C81    C     0.09308   1.03843   0.63787   0.00000  Uiso   1.00
H73    H     0.08131   1.03140   0.72577   0.00000  Uiso   1.00
C82    C     0.11743   1.07169   0.49185   0.00000  Uiso   1.00
H74    H     0.12492   1.09064   0.46566   0.00000  Uiso   1.00
C83    C     0.12332   1.05707   0.41326   0.00000  Uiso   1.00
H75    H     0.13516   1.06474   0.32614   0.00000  Uiso   1.00
C84    C     0.22201   1.06567   0.36319   0.00000  Uiso   1.00
H76    H     0.23159   1.05550   0.38865   0.00000  Uiso   1.00
H77    H     0.22830   1.08125   0.43439   0.00000  Uiso   1.00
H78    H     0.22659   1.07324   0.25856   0.00000  Uiso   1.00
loop_
_geom_bond_atom_site_label_1
_geom_bond_atom_site_label_2
_geom_bond_distance
_geom_bond_site_symmetry_2
_ccdc_geom_bond_type
O1     C4      1.413   .     S
O1     C22     1.432   .     S
O2     C5      1.413   .     S
O2     C28     1.430   .     S
O3     C11     1.414   .     S
O3     C29     1.432   .     S
O4     C12     1.412   .     S
O4     C35     1.430   .     S
O5     C18     1.410   .     S
O5     C36     1.431   .     S
O6     C19     1.412   .     S
O6     C42     1.426   .     S
O7     C47     1.408   .     S
O7     C64     1.433   .     S
O8     C46     1.411   .     S
O8     C70     1.425   .     S
O9     C54     1.410   .     S
O9     C71     1.430   .     S
O10    C53     1.409   .     S
O10    C77     1.428   .     S
O11    C60     1.412   .     S
O11    C84     1.428   .     S
O12    C61     1.410   .     S
O12    C78     1.429   .     S
N1     C25     1.358   .     D
N1     C26     1.358   .     S
N2     C32     1.359   .     D
N2     C33     1.359   .     S
N3     C39     1.359   .     D
N3     C40     1.359   .     S
N4     C67     1.358   .     D
N4     C68     1.358   .     S
N5     C74     1.357   .     S
N5     C75     1.358   .     D
N6     C81     1.359   .     S
N6     C82     1.359   .     D
C1     H1      1.111   .     S
C1     H2      1.101   .     S
C1     C2      1.513   .     S
C1     C21     1.512   .     S
C2     C3      1.404   .     S
C2     C7      1.415   .     D
C3     H3      1.080   .     S
C3     C4      1.411   .     D
C4     C5      1.403   .     S
C5     C6      1.411   .     D
C6     H4      1.077   .     S
C6     C7      1.403   .     S
C7     C8      1.514   .     S
C8     H5      1.097   .     S
C8     H6      1.112   .     S
C8     C9      1.512   .     S
C9     C10     1.404   .     D
C9     C14     1.416   .     S
C10    H7      1.079   .     S
C10    C11     1.410   .     S
C11    C12     1.403   .     D
C12    C13     1.409   .     S
C13    H8      1.080   .     S
C13    C14     1.406   .     D
C14    C15     1.516   .     S
C15    H9      1.107   .     S
C15    H10     1.101   .     S
C15    C16     1.512   .     S
C16    C17     1.405   .     D
C16    C21     1.416   .     S
C17    H11     1.080   .     S
C17    C18     1.407   .     S
C18    C19     1.400   .     D
C19    C20     1.409   .     S
C20    H12     1.080   .     S
C20    C21     1.406   .     D
C22    H13     1.110   .     S
C22    H14     1.113   .     S
C22    C23     1.503   .     S
C23    C24     1.404   .     D
C23    C27     1.402   .     S
C24    H15     1.083   .     S
C24    C25     1.396   .     S
C25    H16     1.081   .     S
C26    H17     1.081   .     S
C26    C27     1.396   .     D
C27    H18     1.083   .     S
C28    H19     1.110   .     S
C28    H20     1.106   .     S
C28    H21     1.111   .     S
C29    H22     1.111   .     S
C29    H23     1.113   .     S
C29    C30     1.502   .     S
C30    C31     1.403   .     D
C30    C34     1.401   .     S
C31    H24     1.082   .     S
C31    C32     1.399   .     S
C32    H25     1.081   .     S
C33    H26     1.081   .     S
C33    C34     1.395   .     D
C34    H27     1.081   .     S
C35    H28     1.109   .     S
C35    H29     1.109   .     S
C35    H30     1.111   .     S
C36    H31     1.110   .     S
C36    H32     1.113   .     S
C36    C37     1.508   .     S
C37    C38     1.401   .     D
C37    C41     1.407   .     S
C38    H33     1.082   .     S
C38    C39     1.397   .     S
C39    H34     1.081   .     S
C40    H35     1.082   .     S
C40    C41     1.397   .     D
C41    H36     1.082   .     S
C42    H37     1.105   .     S
C42    H38     1.107   .     S
C42    H39     1.110   .     S
C43    H40     1.094   .     S
C43    H41     1.112   .     S
C43    C44     1.513   .     S
C43    C63     1.512   .     S
C44    C45     1.406   .     S
C44    C49     1.417   .     D
C45    H42     1.081   .     S
C45    C46     1.412   .     D
C46    C47     1.399   .     S
C47    C48     1.403   .     D
C48    H43     1.080   .     S
C48    C49     1.404   .     S
C49    C50     1.511   .     S
C50    H44     1.100   .     S
C50    H45     1.108   .     S
C50    C51     1.510   .     S
C51    C52     1.405   .     D
C51    C56     1.415   .     S
C52    H46     1.078   .     S
C52    C53     1.405   .     S
C53    C54     1.399   .     D
C54    C55     1.408   .     S
C55    H47     1.079   .     S
C55    C56     1.403   .     D
C56    C57     1.510   .     S
C57    H48     1.101   .     S
C57    H49     1.111   .     S
C57    C58     1.514   .     S
C58    C59     1.406   .     S
C58    C63     1.418   .     D
C59    H50     1.080   .     S
C59    C60     1.409   .     D
C60    C61     1.401   .     S
C61    C62     1.410   .     D
C62    H51     1.081   .     S
C62    C63     1.403   .     S
C64    H52     1.111   .     S
C64    H53     1.108   .     S
C64    C65     1.505   .     S
C65    C66     1.405   .     D
C65    C69     1.401   .     S
C66    H54     1.079   .     S
C66    C67     1.395   .     S
C67    H55     1.081   .     S
C68    H56     1.081   .     S
C68    C69     1.396   .     D
C69    H57     1.082   .     S
C70    H58     1.109   .     S
C70    H59     1.107   .     S
C70    H60     1.108   .     S
C71    H61     1.112   .     S
C71    H62     1.111   .     S
C71    C72     1.503   .     S
C72    C73     1.406   .     S
C72    C76     1.401   .     D
C73    H63     1.081   .     S
C73    C74     1.395   .     D
C74    H64     1.079   .     S
C75    H65     1.077   .     S
C75    C76     1.394   .     S
C76    H66     1.083   .     S
C77    H67     1.109   .     S
C77    H68     1.107   .     S
C77    H69     1.105   .     S
C78    H70     1.104   .     S
C78    H71     1.112   .     S
C78    C79     1.497   .     S
C79    C80     1.403   .     S
C79    C83     1.398   .     D
C80    H72     1.081   .     S
C80    C81     1.397   .     D
C81    H73     1.082   .     S
C82    H74     1.077   .     S
C82    C83     1.392   .     S
C83    H75     1.081   .     S
C84    H76     1.111   .     S
C84    H77     1.108   .     S
C84    H78     1.111   .     S
