data_BAGTAG.search1
_audit_creation_date              2015-05-21
_audit_creation_method            'Materials Studio'
_symmetry_space_group_name_H-M    'CMCA'
_symmetry_Int_Tables_number       64
_symmetry_cell_setting            orthorhombic
loop_
_symmetry_equiv_pos_as_xyz
  x,y,z
  -x,-y+1/2,z+1/2
  -x,y+1/2,-z+1/2
  x,-y,-z
  -x,-y,-z
  x,y+1/2,-z+1/2
  x,-y+1/2,z+1/2
  -x,y,z
  x+1/2,y+1/2,z
  -x+1/2,-y,z+1/2
  -x+1/2,y,-z+1/2
  x+1/2,-y+1/2,-z
  -x+1/2,-y+1/2,-z
  x+1/2,y,-z+1/2
  x+1/2,-y,z+1/2
  -x+1/2,y+1/2,z
_cell_length_a                    26.0571
_cell_length_b                    30.7423
_cell_length_c                    17.1789
_cell_angle_alpha                 90.0000
_cell_angle_beta                  90.0000
_cell_angle_gamma                 90.0000
loop_
_atom_site_label
_atom_site_type_symbol
_atom_site_fract_x
_atom_site_fract_y
_atom_site_fract_z
_atom_site_U_iso_or_equiv
_atom_site_adp_type
_atom_site_occupancy
C2     C     0.45550   0.20562   0.88056   0.00000  Uiso   1.00
C3     C     0.47203   0.23390   0.82709   0.00000  Uiso   1.00
C5     C     0.40366   0.18307   0.87704   0.00000  Uiso   1.00
C6     C     0.44000   0.25115   0.75986   0.00000  Uiso   1.00
C7     C     0.45527   0.11454   0.91225   0.00000  Uiso   1.00
C8     C     0.41198   0.13469   0.87912   0.00000  Uiso   1.00
C9     C     0.37986   0.18774   0.79633   0.00000  Uiso   1.00
C10    C     0.39711   0.21944   0.74211   0.00000  Uiso   1.00
C11    C     0.47114   0.24979   0.68505   0.00000  Uiso   1.00
C12    C     0.47220   0.07537   0.87961   0.00000  Uiso   1.00
C13    C     0.38572   0.11491   0.81803   0.00000  Uiso   1.00
C14    C     0.36700   0.14637   0.76794   0.00000  Uiso   1.00
C15    C     0.39904   0.20932   0.66297   0.00000  Uiso   1.00
C16    C     0.44504   0.22873   0.62933   0.00000  Uiso   1.00
C17    C     0.44466   0.05448   0.81981   0.00000  Uiso   1.00
C18    C     0.40141   0.07417   0.78928   0.00000  Uiso   1.00
C19    C     0.36586   0.13753   0.68720   0.00000  Uiso   1.00
C20    C     0.38162   0.16910   0.63505   0.00000  Uiso   1.00
C21    C     0.47197   0.20644   0.56465   0.00000  Uiso   1.00
C22    C     0.47147   0.03265   0.75548   0.00000  Uiso   1.00
C23    C     0.39892   0.06508   0.70999   0.00000  Uiso   1.00
C24    C     0.38109   0.09706   0.65834   0.00000  Uiso   1.00
C25    C     0.40884   0.14735   0.57114   0.00000  Uiso   1.00
C26    C     0.45507   0.16834   0.53716   0.00000  Uiso   1.00
C27    C     0.44453   0.03919   0.69000   0.00000  Uiso   1.00
C28    C     0.40861   0.10446   0.58480   0.00000  Uiso   1.00
C30    C     0.47174   0.04729   0.61526   0.00000  Uiso   1.00
C31    C     0.45483   0.07778   0.56571   0.00000  Uiso   1.00
H2     H     0.46568   0.15393   1.06100   0.00000  Uiso   1.00
H3     H     0.53578   0.10846   1.17888   0.00000  Uiso   1.00
H4     H     0.48324   0.06161   1.22016   0.00000  Uiso   1.00
H5     H     0.47523   0.11106   1.23877   0.00000  Uiso   1.00
C35    C     0.44059   0.05080   1.06608   0.00000  Uiso   1.00
H6     H     0.44360   0.03688   1.00715   0.00000  Uiso   1.00
H7     H     0.40690   0.07282   1.06876   0.00000  Uiso   1.00
H8     H     0.43551   0.02411   1.10850   0.00000  Uiso   1.00
C36    C     0.41835   0.29695   0.77252   0.00000  Uiso   1.00
C37    C     0.38561   0.31552   0.71615   0.00000  Uiso   1.00
H9     H     0.37707   0.29839   0.66282   0.00000  Uiso   1.00
C38    C     0.36225   0.35577   0.72873   0.00000  Uiso   1.00
H10    H     0.33603   0.36841   0.68544   0.00000  Uiso   1.00
C39    C     0.37138   0.37888   0.79765   0.00000  Uiso   1.00
C40    C     0.40580   0.36175   0.85234   0.00000  Uiso   1.00
H11    H     0.41458   0.37978   0.90469   0.00000  Uiso   1.00
C41    C     0.42933   0.32151   0.83966   0.00000  Uiso   1.00
H12    H     0.45513   0.30934   0.88355   0.00000  Uiso   1.00
C42    C     0.33958   0.45194   0.75081   0.00000  Uiso   1.00
H13    H     0.29908   0.45267   0.73080   0.00000  Uiso   1.00
H14    H     0.36491   0.44457   0.70058   0.00000  Uiso   1.00
H15    H     0.35021   0.48450   0.77331   0.00000  Uiso   1.00
C43    C     0.32256   0.42843   0.88861   0.00000  Uiso   1.00
H16    H     0.28154   0.43735   0.88133   0.00000  Uiso   1.00
H17    H     0.34326   0.45575   0.91692   0.00000  Uiso   1.00
H18    H     0.32434   0.39947   0.92723   0.00000  Uiso   1.00
C44    C     0.36683   0.19698   0.94205   0.00000  Uiso   1.00
C45    C     0.33669   0.16640   0.98318   0.00000  Uiso   1.00
H19    H     0.33868   0.13194   0.97107   0.00000  Uiso   1.00
C46    C     0.30191   0.17950   1.04002   0.00000  Uiso   1.00
H20    H     0.27961   0.15442   1.06822   0.00000  Uiso   1.00
C47    C     0.29566   0.22372   1.05877   0.00000  Uiso   1.00
C48    C     0.32606   0.25421   1.01827   0.00000  Uiso   1.00
H21    H     0.32258   0.28863   1.02879   0.00000  Uiso   1.00
C49    C     0.36086   0.24101   0.96100   0.00000  Uiso   1.00
H22    H     0.38276   0.26544   0.93091   0.00000  Uiso   1.00
C50    C     0.25699   0.28222   1.14569   0.00000  Uiso   1.00
H23    H     0.29192   0.28891   1.18008   0.00000  Uiso   1.00
H24    H     0.22316   0.28822   1.18311   0.00000  Uiso   1.00
H25    H     0.25403   0.30554   1.09688   0.00000  Uiso   1.00
C51    C     0.22448   0.20510   1.15399   0.00000  Uiso   1.00
H26    H     0.24774   0.18018   1.18432   0.00000  Uiso   1.00
H27    H     0.20048   0.18881   1.10934   0.00000  Uiso   1.00
H28    H     0.19837   0.22027   1.19718   0.00000  Uiso   1.00
N1     N     0.25839   0.23725   1.11706   0.00000  Uiso   1.00
N2     N     0.34544   0.41944   0.81242   0.00000  Uiso   1.00
C1     C     0.50000   0.18966   0.92811   0.00000  Uiso   1.00
H1     H     0.50000   0.20965   0.98215   0.00000  Uiso   1.00
C4     C     0.50000   0.13946   0.94806   0.00000  Uiso   1.00
C29    C     0.50000   0.14185   0.51723   0.00000  Uiso   1.00
C32    C     0.50000   0.09871   0.53080   0.00000  Uiso   1.00
C33    C     0.50000   0.13639   1.03867   0.00000  Uiso   1.00
C34    C     0.50000   0.09247   1.19856   0.00000  Uiso   1.00
Si1    Si    0.50000   0.08213   1.09032   0.00000  Uiso   1.00
loop_
_geom_bond_atom_site_label_1
_geom_bond_atom_site_label_2
_geom_bond_distance
_geom_bond_site_symmetry_2
_ccdc_geom_bond_type
C2     C3      1.336   .     D
C2     C5      1.519   .     S
C2     C1      1.501   .     S
C3     C6      1.521   .     S
C3     C3      1.457   8_655 S
C5     C8      1.503   .     S
C5     C9      1.526   .     S
C5     C44     1.533   .     S
C6     C10     1.514   .     S
C6     C11     1.520   .     S
C6     C36     1.532   .     S
C7     C8      1.407   .     S
C7     C12     1.400   .     D
C7     C4      1.524   .     S
C8     C13     1.393   .     D
C9     C10     1.421   .     S
C9     C14     1.403   .     D
C10    C15     1.396   .     D
C11    C16     1.341   .     D
C11    C11     1.504   8_655 S
C12    C17     1.408   .     S
C12    C12     1.449   8_655 S
C13    C14     1.383   .     S
C13    C18     1.407   .     S
C14    C19     1.414   .     S
C15    C16     1.458   .     S
C15    C20     1.402   .     S
C16    C21     1.482   .     S
C17    C18     1.382   .     D
C17    C22     1.470   .     S
C18    C23     1.392   .     S
C19    C20     1.383   .     D
C19    C24     1.397   .     S
C20    C25     1.468   .     S
C21    C26     1.338   .     D
C21    C21     1.461   8_655 S
C22    C27     1.341   .     D
C22    C22     1.487   8_655 S
C23    C24     1.403   .     D
C23    C27     1.471   .     S
C24    C28     1.471   .     S
C25    C26     1.486   .     S
C25    C28     1.339   .     D
C26    C29     1.467   .     S
C27    C30     1.488   .     S
C28    C31     1.494   .     S
C30    C31     1.341   .     D
C30    C30     1.473   8_655 S
C31    C32     1.469   .     S
H2     C33     1.113   .     S
H3     C34     1.107   .     S
H4     C34     1.108   .     S
H5     C34     1.105   .     S
C35    H6      1.102   .     S
C35    H7      1.109   .     S
C35    H8      1.106   .     S
C35    Si1     1.870   .     S
C36    C37     1.411   .     S
C36    C41     1.408   .     D
C37    H9      1.080   .     S
C37    C38     1.396   .     D
C38    H10     1.082   .     S
C38    C39     1.401   .     S
C39    C40     1.401   .     D
C39    N2      1.441   .     S
C40    H11     1.081   .     S
C40    C41     1.398   .     S
C41    H12     1.077   .     S
C42    H13     1.110   .     S
C42    H14     1.110   .     S
C42    H15     1.108   .     S
C42    N2      1.463   .     S
C43    H16     1.111   .     S
C43    H17     1.110   .     S
C43    H18     1.111   .     S
C43    N2      1.465   .     S
C44    C45     1.414   .     S
C44    C49     1.401   .     D
C45    H19     1.081   .     S
C45    C46     1.392   .     D
C46    H20     1.080   .     S
C46    C47     1.407   .     S
C47    C48     1.411   .     D
C47    N1      1.455   .     S
C48    H21     1.077   .     S
C48    C49     1.398   .     S
C49    H22     1.076   .     S
C50    H23     1.104   .     S
C50    H24     1.106   .     S
C50    H25     1.106   .     S
C50    N1      1.468   .     S
C51    H26     1.107   .     S
C51    H27     1.109   .     S
C51    H28     1.109   .     S
C51    N1      1.470   .     S
C1     C2      1.501   8_655 S
C1     H1      1.113   .     S
C1     C4      1.581   .     S
C4     C7      1.524   8_655 S
C4     C33     1.559   .     S
C29    C26     1.467   8_655 S
C29    C32     1.346   .     D
C32    C31     1.469   8_655 S
C33    H2      1.113   8_655 S
C33    Si1     1.890   .     S
C34    H5      1.105   8_655 S
C34    H3      1.107   8_655 S
C34    H4      1.108   8_655 S
C34    Si1     1.886   .     S
Si1    C35     1.870   8_655 S
