data_RERNEI.search1
_audit_creation_date              2015-05-21
_audit_creation_method            'Materials Studio'
_symmetry_space_group_name_H-M    'I-43D'
_symmetry_Int_Tables_number       220
_symmetry_cell_setting            cubic
loop_
_symmetry_equiv_pos_as_xyz
  x,y,z
  -x+1/2,-y,z+1/2
  -x,y+1/2,-z+1/2
  x+1/2,-y+1/2,-z
  z,x,y
  z+1/2,-x+1/2,-y
  -z+1/2,-x,y+1/2
  -z,x+1/2,-y+1/2
  y,z,x
  -y,z+1/2,-x+1/2
  y+1/2,-z+1/2,-x
  -y+1/2,-z,x+1/2
  y+1/4,x+1/4,z+1/4
  -y+1/4,-x+3/4,z+3/4
  y+3/4,-x+1/4,-z+3/4
  -y+3/4,x+3/4,-z+1/4
  x+1/4,z+1/4,y+1/4
  -x+3/4,z+3/4,-y+1/4
  -x+1/4,-z+3/4,y+3/4
  x+3/4,-z+1/4,-y+3/4
  z+1/4,y+1/4,x+1/4
  z+3/4,-y+1/4,-x+3/4
  -z+3/4,y+3/4,-x+1/4
  -z+1/4,-y+3/4,x+3/4
  x+1/2,y+1/2,z+1/2
  -x,-y+1/2,z
  -x+1/2,y,-z
  x,-y,-z+1/2
  z+1/2,x+1/2,y+1/2
  z,-x,-y+1/2
  -z,-x+1/2,y
  -z+1/2,x,-y
  y+1/2,z+1/2,x+1/2
  -y+1/2,z,-x
  y,-z,-x+1/2
  -y,-z+1/2,x
  y+3/4,x+3/4,z+3/4
  -y+3/4,-x+1/4,z+1/4
  y+1/4,-x+3/4,-z+1/4
  -y+1/4,x+1/4,-z+3/4
  x+3/4,z+3/4,y+3/4
  -x+1/4,z+1/4,-y+3/4
  -x+3/4,-z+1/4,y+1/4
  x+1/4,-z+3/4,-y+1/4
  z+3/4,y+3/4,x+3/4
  z+1/4,-y+3/4,-x+1/4
  -z+1/4,y+1/4,-x+3/4
  -z+3/4,-y+1/4,x+1/4
_cell_length_a                    36.1082
_cell_length_b                    36.1082
_cell_length_c                    36.1082
_cell_angle_alpha                 90.0000
_cell_angle_beta                  90.0000
_cell_angle_gamma                 90.0000
loop_
_atom_site_label
_atom_site_type_symbol
_atom_site_fract_x
_atom_site_fract_y
_atom_site_fract_z
_atom_site_U_iso_or_equiv
_atom_site_adp_type
_atom_site_occupancy
C1     C     0.06148   0.97050   0.92989   0.00000  Uiso   1.00
C2     C     0.09273   0.96294   0.90836   0.00000  Uiso   1.00
H1     H     0.09870   0.98016   0.88458   0.00000  Uiso   1.00
C3     C     0.11654   0.93407   0.91858   0.00000  Uiso   1.00
C4     C     0.10661   0.91127   0.94844   0.00000  Uiso   1.00
H2     H     0.12364   0.88783   0.95607   0.00000  Uiso   1.00
C5     C     0.07470   0.91862   0.96922   0.00000  Uiso   1.00
H3     H     0.06968   0.90005   0.99145   0.00000  Uiso   1.00
C6     C     0.05212   0.94913   0.96013   0.00000  Uiso   1.00
C7     C     0.01805   0.96532   0.97664   0.00000  Uiso   1.00
C8     C    -0.00346   0.95542   1.00810   0.00000  Uiso   1.00
C9     C     0.03542   1.00224   0.92387   0.00000  Uiso   1.00
C10    C     0.01690   0.99702   0.88509   0.00000  Uiso   1.00
H4     H    -0.00488   1.01737   0.87963   0.00000  Uiso   1.00
H5     H     0.03797   1.00075   0.86312   0.00000  Uiso   1.00
C11    C    -0.00183   0.95919   0.87957   0.00000  Uiso   1.00
H6     H    -0.01444   0.95803   0.85155   0.00000  Uiso   1.00
H7     H    -0.02414   0.95503   0.90033   0.00000  Uiso   1.00
H8     H     0.01842   0.93618   0.88176   0.00000  Uiso   1.00
C12    C     0.05859   1.03869   0.92820   0.00000  Uiso   1.00
H9     H     0.08172   1.03871   0.90794   0.00000  Uiso   1.00
H10    H     0.04283   1.06386   0.92222   0.00000  Uiso   1.00
C13    C     0.07528   1.04410   0.96697   0.00000  Uiso   1.00
H11    H     0.09365   1.06871   0.96691   0.00000  Uiso   1.00
H12    H     0.09212   1.01986   0.97544   0.00000  Uiso   1.00
H13    H     0.05305   1.04874   0.98771   0.00000  Uiso   1.00
C14    C     0.16849   0.96047   0.87071   0.00000  Uiso   1.00
C15    C     0.17484   0.99665   0.88533   0.00000  Uiso   1.00
C16    C     0.18084   1.02641   0.86108   0.00000  Uiso   1.00
H14    H     0.18491   1.05405   0.87204   0.00000  Uiso   1.00
C17    C     0.18077   1.02121   0.82280   0.00000  Uiso   1.00
C18    C     0.17648   0.98565   0.80841   0.00000  Uiso   1.00
H15    H     0.17694   0.98192   0.77868   0.00000  Uiso   1.00
C19    C     0.17049   0.95515   0.83173   0.00000  Uiso   1.00
C20    C     0.17540   1.00474   0.92641   0.00000  Uiso   1.00
H16    H     0.18301   1.03397   0.93223   0.00000  Uiso   1.00
H17    H     0.19607   0.98709   0.94045   0.00000  Uiso   1.00
H18    H     0.14786   1.00012   0.93888   0.00000  Uiso   1.00
C21    C     0.18459   1.05352   0.79702   0.00000  Uiso   1.00
H19    H     0.18712   1.08001   0.81241   0.00000  Uiso   1.00
H20    H     0.15967   1.05531   0.77914   0.00000  Uiso   1.00
H21    H     0.20952   1.04983   0.77941   0.00000  Uiso   1.00
C22    C     0.16475   0.91786   0.81398   0.00000  Uiso   1.00
H22    H     0.16610   0.91938   0.78336   0.00000  Uiso   1.00
H23    H     0.13699   0.90707   0.82103   0.00000  Uiso   1.00
H24    H     0.18654   0.89842   0.82348   0.00000  Uiso   1.00
C23    C     0.17364   0.88835   0.89812   0.00000  Uiso   1.00
C24    C     0.21085   0.88498   0.91078   0.00000  Uiso   1.00
C25    C     0.22708   0.84981   0.91389   0.00000  Uiso   1.00
H25    H     0.25503   0.84702   0.92446   0.00000  Uiso   1.00
C26    C     0.20766   0.81792   0.90418   0.00000  Uiso   1.00
C27    C     0.17117   0.82090   0.89187   0.00000  Uiso   1.00
H26    H     0.15598   0.79600   0.88476   0.00000  Uiso   1.00
C28    C     0.15383   0.85549   0.88847   0.00000  Uiso   1.00
C29    C     0.23344   0.91791   0.92298   0.00000  Uiso   1.00
H27    H     0.26221   0.90999   0.93049   0.00000  Uiso   1.00
H28    H     0.22054   0.93031   0.94790   0.00000  Uiso   1.00
H29    H     0.23531   0.93857   0.90034   0.00000  Uiso   1.00
C30    C     0.22625   0.78087   0.90700   0.00000  Uiso   1.00
H30    H     0.20739   0.75802   0.89874   0.00000  Uiso   1.00
H31    H     0.23540   0.77603   0.93596   0.00000  Uiso   1.00
H32    H     0.25074   0.78032   0.88846   0.00000  Uiso   1.00
C31    C     0.11457   0.85501   0.87389   0.00000  Uiso   1.00
H33    H     0.11392   0.84044   0.84680   0.00000  Uiso   1.00
H34    H     0.10243   0.88272   0.86938   0.00000  Uiso   1.00
H35    H     0.09651   0.83987   0.89365   0.00000  Uiso   1.00
B1     B     0.15401   0.92792   0.89694   0.00000  Uiso   1.00
loop_
_geom_bond_atom_site_label_1
_geom_bond_atom_site_label_2
_geom_bond_distance
_geom_bond_site_symmetry_2
_ccdc_geom_bond_type
C1     C2      1.397   .     D
C1     C6      1.379   .     S
C1     C9      1.499   .     S
C2     H1      1.082   .     S
C2     C3      1.401   .     S
C3     C4      1.403   .     D
C3     B1      1.578   .     S
C4     H2      1.082   .     S
C4     C5      1.400   .     S
C5     H3      1.061   .     S
C5     C6      1.409   .     D
C6     C7      1.487   .     S
C7     C8      1.422   .     D
C7     C8      1.410   5_465 S
C8     C7      1.410   9_456 S
C8     C9      1.521   9_456 S
C9     C10     1.563   .     S
C9     C12     1.567   .     S
C9     C8      1.521   5_465 S
C10    H4      1.094   .     S
C10    H5      1.107   .     S
C10    C11     1.537   .     S
C11    H6      1.111   .     S
C11    H7      1.110   .     S
C11    H8      1.109   .     S
C12    H9      1.110   .     S
C12    H10     1.094   .     S
C12    C13     1.536   .     S
C13    H11     1.109   .     S
C13    H12     1.109   .     S
C13    H13     1.111   .     S
C14    C15     1.428   .     S
C14    C19     1.422   .     D
C14    B1      1.597   .     S
C15    C16     1.403   .     D
C15    C20     1.512   .     S
C16    H14     1.084   .     S
C16    C17     1.395   .     S
C17    C18     1.394   .     D
C17    C21     1.499   .     S
C18    H15     1.082   .     S
C18    C19     1.403   .     S
C19    C22     1.506   .     S
C20    H16     1.111   .     S
C20    H17     1.105   .     S
C20    H18     1.104   .     S
C21    H19     1.110   .     S
C21    H20     1.110   .     S
C21    H21     1.110   .     S
C22    H22     1.108   .     S
C22    H23     1.105   .     S
C22    H24     1.109   .     S
C23    C24     1.424   .     D
C23    C28     1.429   .     S
C23    B1      1.596   .     S
C24    C25     1.403   .     S
C24    C29     1.507   .     S
C25    H25     1.083   .     S
C25    C26     1.393   .     D
C26    C27     1.395   .     S
C26    C30     1.500   .     S
C27    H26     1.084   .     S
C27    C28     1.402   .     D
C28    C31     1.513   .     S
C29    H27     1.111   .     S
C29    H28     1.108   .     S
C29    H29     1.109   .     S
C30    H30     1.111   .     S
C30    H31     1.110   .     S
C30    H32     1.109   .     S
C31    H33     1.111   .     S
C31    H34     1.104   .     S
C31    H35     1.110   .     S
