data_image0
_cell_length_a       46.5271
_cell_length_b       46.8314
_cell_length_c       46.5923
_cell_angle_alpha    90
_cell_angle_beta     90
_cell_angle_gamma    90

_symmetry_space_group_name_H-M    "P 1"
_symmetry_int_tables_number       1

loop_
  _symmetry_equiv_pos_as_xyz
  'x, y, z'

loop_
  _atom_site_label
  _atom_site_occupancy
  _atom_site_fract_x
  _atom_site_fract_y
  _atom_site_fract_z
  _atom_site_thermal_displace_type
  _atom_site_B_iso_or_equiv
  _atom_site_type_symbol
  Ne1      1.0000 0.42448  0.80137  0.68934  Biso   1.000  Ne
  He1      1.0000 0.43057  0.83079  0.70365  Biso   1.000  He
  He2      1.0000 0.41942  0.85635  0.68606  Biso   1.000  He
  Ne2      1.0000 0.42671  0.89041  0.69706  Biso   1.000  Ne
  Ne3      1.0000 0.40816  0.90313  0.40784  Biso   1.000  Ne
  He3      1.0000 0.44082  0.90355  0.41836  Biso   1.000  He
  He4      1.0000 0.46082  0.91745  0.39470  Biso   1.000  He
  Ne4      1.0000 0.49083  0.91784  0.40443  Biso   1.000  Ne
  Ne5      1.0000 0.12532  0.61037  0.39983  Biso   1.000  Ne
  He5      1.0000 0.12836  0.64215  0.40725  Biso   1.000  He
  He6      1.0000 0.10662  0.66287  0.39610  Biso   1.000  He
  Ne6      1.0000 0.10754  0.69323  0.40872  Biso   1.000  Ne
  Ne7      1.0000 0.22001  0.12859  0.10613  Biso   1.000  Ne
  He7      1.0000 0.19600  0.15211  0.10781  Biso   1.000  He
  He8      1.0000 0.16970  0.14923  0.08636  Biso   1.000  He
  Ne8      1.0000 0.14730  0.17389  0.08750  Biso   1.000  Ne
  Ne9      1.0000 0.61882  0.34523  0.82509  Biso   1.000  Ne
  He9      1.0000 0.61375  0.37440  0.80865  Biso   1.000  He
  He10     1.0000 0.63748  0.38115  0.78756  Biso   1.000  He
  Ne10     1.0000 0.63321  0.40838  0.77487  Biso   1.000  Ne
  Ne11     1.0000 0.94337  0.13284  0.11045  Biso   1.000  Ne
  He11     1.0000 0.95036  0.10132  0.11667  Biso   1.000  He
  He12     1.0000 0.94573  0.09395  0.14802  Biso   1.000  He
  Ne12     1.0000 0.95336  0.06142  0.15694  Biso   1.000  Ne
  Ne13     1.0000 0.04942  0.41826  0.54026  Biso   1.000  Ne
  He13     1.0000 0.06390  0.40216  0.51380  Biso   1.000  He
  He14     1.0000 0.06631  0.41806  0.48621  Biso   1.000  He
  Ne14     1.0000 0.08144  0.39933  0.46349  Biso   1.000  Ne
  Ne15     1.0000 0.43700  0.54459  0.98011  Biso   1.000  Ne
  He15     1.0000 0.46036  0.52901  0.99499  Biso   1.000  He
  He16     1.0000 0.48852  0.53726  0.97866  Biso   1.000  He
  Ne16     1.0000 0.51481  0.52275  0.99219  Biso   1.000  Ne
  Ne17     1.0000 0.57497  0.57913  0.95868  Biso   1.000  Ne
  He17     1.0000 0.59172  0.55512  0.94530  Biso   1.000  He
  He18     1.0000 0.61837  0.54579  0.96174  Biso   1.000  He
  Ne18     1.0000 0.63671  0.52656  0.94215  Biso   1.000  Ne
  Ne19     1.0000 0.07234  0.91961  0.09184  Biso   1.000  Ne
  He19     1.0000 0.10041  0.90600  0.08062  Biso   1.000  He
  He20     1.0000 0.12577  0.92988  0.08104  Biso   1.000  He
  Ne20     1.0000 0.15225  0.92010  0.06236  Biso   1.000  Ne
  Ne21     1.0000 0.67152  0.58106  0.16274  Biso   1.000  Ne
  He21     1.0000 0.67622  0.57816  0.12857  Biso   1.000  He
  He22     1.0000 0.70134  0.55798  0.11723  Biso   1.000  He
  Ne22     1.0000 0.70264  0.55415  0.08708  Biso   1.000  Ne
  Ne23     1.0000 0.24424  0.06206  0.92099  Biso   1.000  Ne
  He23     1.0000 0.21237  0.07488  0.92326  Biso   1.000  He
  He24     1.0000 0.21266  0.10755  0.92157  Biso   1.000  He
  Ne24     1.0000 0.18146  0.11878  0.91984  Biso   1.000  Ne
  Ne25     1.0000 0.11955  0.48863  0.45961  Biso   1.000  Ne
  He25     1.0000 0.11962  0.50756  0.48697  Biso   1.000  He
  He26     1.0000 0.09280  0.52502  0.49476  Biso   1.000  He
  Ne26     1.0000 0.09553  0.55383  0.47791  Biso   1.000  Ne
  Ne27     1.0000 0.95443  0.89421  0.87235  Biso   1.000  Ne
  He27     1.0000 0.94103  0.90519  0.89766  Biso   1.000  He
  He28     1.0000 0.90754  0.89548  0.90119  Biso   1.000  He
  Ne28     1.0000 0.88778  0.90933  0.92320  Biso   1.000  Ne
  Ne29     1.0000 0.61572  0.02072  0.57519  Biso   1.000  Ne
  He29     1.0000 0.58265  0.01952  0.56771  Biso   1.000  He
  He30     1.0000 0.56651  0.99585  0.58464  Biso   1.000  He
  Ne30     1.0000 0.53448  0.99399  0.58032  Biso   1.000  Ne
  Ne31     1.0000 0.43779  0.05485  0.56189  Biso   1.000  Ne
  He31     1.0000 0.47279  0.04995  0.55960  Biso   1.000  He
  He32     1.0000 0.48428  0.07041  0.53822  Biso   1.000  He
  Ne32     1.0000 0.51673  0.06741  0.53060  Biso   1.000  Ne
  Ne33     1.0000 0.34022  0.42379  0.90190  Biso   1.000  Ne
  He33     1.0000 0.34036  0.39355  0.91151  Biso   1.000  He
  He34     1.0000 0.36418  0.37454  0.90098  Biso   1.000  He
  Ne34     1.0000 0.35894  0.34520  0.91118  Biso   1.000  Ne
  Ne35     1.0000 0.18139  0.56571  0.31880  Biso   1.000  Ne
  He35     1.0000 0.16759  0.59569  0.31760  Biso   1.000  He
  He36     1.0000 0.16201  0.60629  0.28561  Biso   1.000  He
  Ne36     1.0000 0.14543  0.63760  0.28218  Biso   1.000  Ne
  Ne37     1.0000 0.65023  0.68827  0.18122  Biso   1.000  Ne
  He37     1.0000 0.66686  0.68874  0.15024  Biso   1.000  He
  He38     1.0000 0.69897  0.68875  0.15226  Biso   1.000  He
  Ne38     1.0000 0.71288  0.68369  0.12377  Biso   1.000  Ne
  Ne39     1.0000 0.44575  0.35442  0.08341  Biso   1.000  Ne
  He39     1.0000 0.45569  0.36136  0.11310  Biso   1.000  He
  He40     1.0000 0.43307  0.35969  0.13550  Biso   1.000  He
  Ne40     1.0000 0.44101  0.36898  0.16768  Biso   1.000  Ne
  Ne41     1.0000 0.97003  0.38654  0.54645  Biso   1.000  Ne
  He41     1.0000 0.96214  0.38611  0.57799  Biso   1.000  He
  He42     1.0000 0.94104  0.35926  0.58124  Biso   1.000  He
  Ne42     1.0000 0.93355  0.35187  0.61209  Biso   1.000  Ne
  Ne43     1.0000 0.46465  0.61571  0.07183  Biso   1.000  Ne
  He43     1.0000 0.46326  0.58808  0.09216  Biso   1.000  He
  He44     1.0000 0.46489  0.55723  0.07852  Biso   1.000  He
  Ne44     1.0000 0.46884  0.53299  0.09895  Biso   1.000  Ne
  Ne45     1.0000 0.56359  0.28635  0.32177  Biso   1.000  Ne
  He45     1.0000 0.58525  0.26329  0.32345  Biso   1.000  He
  He46     1.0000 0.58162  0.23845  0.34693  Biso   1.000  He
  Ne46     1.0000 0.60383  0.21294  0.34586  Biso   1.000  Ne
  Ne47     1.0000 0.10177  0.34023  0.58524  Biso   1.000  Ne
  He47     1.0000 0.10122  0.30931  0.59676  Biso   1.000  He
  He48     1.0000 0.10554  0.30812  0.63029  Biso   1.000  He
  Ne48     1.0000 0.10854  0.27703  0.64330  Biso   1.000  Ne
  Ne49     1.0000 0.10329  0.38273  0.68443  Biso   1.000  Ne
  He49     1.0000 0.09286  0.39013  0.65409  Biso   1.000  He
  He50     1.0000 0.11573  0.40633  0.63627  Biso   1.000  He
  Ne50     1.0000 0.10848  0.41112  0.60451  Biso   1.000  Ne
  Ne51     1.0000 0.91622  0.61126  0.74772  Biso   1.000  Ne
  He51     1.0000 0.93166  0.64050  0.74730  Biso   1.000  He
  He52     1.0000 0.96443  0.63889  0.74542  Biso   1.000  He
  Ne52     1.0000 0.98017  0.67107  0.75108  Biso   1.000  Ne
  Ne53     1.0000 0.69800  0.70210  0.53362  Biso   1.000  Ne
  He53     1.0000 0.70700  0.72751  0.55124  Biso   1.000  He
  He54     1.0000 0.73856  0.72314  0.56574  Biso   1.000  He
  Ne54     1.0000 0.74766  0.75183  0.58317  Biso   1.000  Ne
  Ne55     1.0000 0.03121  0.14558  0.70986  Biso   1.000  Ne
  He55     1.0000 0.05140  0.12819  0.68980  Biso   1.000  He
  He56     1.0000 0.03864  0.12034  0.66045  Biso   1.000  He
  Ne56     1.0000 0.05903  0.11395  0.63781  Biso   1.000  Ne
  Ne57     1.0000 0.68703  0.56363  0.86910  Biso   1.000  Ne
  He57     1.0000 0.65561  0.57043  0.85471  Biso   1.000  He
  He58     1.0000 0.62878  0.56178  0.86992  Biso   1.000  He
  Ne58     1.0000 0.60111  0.57266  0.85061  Biso   1.000  Ne
  Ne59     1.0000 0.28659  0.58710  0.08695  Biso   1.000  Ne
  He59     1.0000 0.31527  0.59082  0.10195  Biso   1.000  He
  He60     1.0000 0.34087  0.58366  0.08460  Biso   1.000  He
  Ne60     1.0000 0.36990  0.58655  0.10176  Biso   1.000  Ne
  Ne61     1.0000 0.78615  0.17172  0.40550  Biso   1.000  Ne
  He61     1.0000 0.79375  0.20144  0.41833  Biso   1.000  He
  He62     1.0000 0.81215  0.22376  0.39871  Biso   1.000  He
  Ne62     1.0000 0.81772  0.25424  0.41284  Biso   1.000  Ne
  Ne63     1.0000 0.95914  0.30143  0.36485  Biso   1.000  Ne
  He63     1.0000 0.94516  0.28502  0.39164  Biso   1.000  He
  He64     1.0000 0.92949  0.25698  0.38412  Biso   1.000  He
  Ne64     1.0000 0.94239  0.22961  0.39414  Biso   1.000  Ne
  Ne65     1.0000 0.61163  0.53517  0.04604  Biso   1.000  Ne
  He65     1.0000 0.58715  0.52252  0.06271  Biso   1.000  He
  He66     1.0000 0.58470  0.48859  0.06559  Biso   1.000  He
  Ne66     1.0000 0.55514  0.47556  0.07709  Biso   1.000  Ne
  Ne67     1.0000 0.61673  0.12812  0.42465  Biso   1.000  Ne
  He67     1.0000 0.64538  0.13433  0.41094  Biso   1.000  He
  He68     1.0000 0.66769  0.15222  0.43349  Biso   1.000  He
  Ne68     1.0000 0.69892  0.15404  0.42064  Biso   1.000  Ne
  Ne69     1.0000 0.62613  0.88835  0.44344  Biso   1.000  Ne
  He69     1.0000 0.61517  0.92018  0.44074  Biso   1.000  He
  He70     1.0000 0.62195  0.93830  0.46840  Biso   1.000  He
  Ne70     1.0000 0.61254  0.96955  0.47077  Biso   1.000  Ne
  Ne71     1.0000 0.87857  0.06865  0.92036  Biso   1.000  Ne
  He71     1.0000 0.89218  0.09939  0.92662  Biso   1.000  He
  He72     1.0000 0.92618  0.10333  0.92543  Biso   1.000  He
  Ne72     1.0000 0.93875  0.13613  0.92720  Biso   1.000  Ne
  Ne73     1.0000 0.40892  0.55232  0.17636  Biso   1.000  Ne
  He73     1.0000 0.41419  0.58032  0.19417  Biso   1.000  He
  He74     1.0000 0.41633  0.57409  0.22797  Biso   1.000  He
  Ne74     1.0000 0.42670  0.60481  0.24282  Biso   1.000  Ne
  Ne75     1.0000 0.65207  0.35082  0.92516  Biso   1.000  Ne
  He75     1.0000 0.63394  0.32540  0.91798  Biso   1.000  He
  He76     1.0000 0.63935  0.30184  0.93963  Biso   1.000  He
  Ne76     1.0000 0.62122  0.27379  0.93644  Biso   1.000  Ne
  Ne77     1.0000 0.73482  0.09067  0.35684  Biso   1.000  Ne
  He77     1.0000 0.74015  0.09813  0.38983  Biso   1.000  He
  He78     1.0000 0.73315  0.07287  0.40746  Biso   1.000  He
  Ne78     1.0000 0.74697  0.07407  0.43987  Biso   1.000  Ne
  Ne79     1.0000 0.49881  0.02720  0.42830  Biso   1.000  Ne
  He79     1.0000 0.48903  0.02307  0.45783  Biso   1.000  He
  He80     1.0000 0.45422  0.02128  0.45693  Biso   1.000  He
  Ne80     1.0000 0.44437  0.00572  0.48292  Biso   1.000  Ne
  Ne81     1.0000 0.82660  0.94158  0.44280  Biso   1.000  Ne
  He81     1.0000 0.80748  0.91347  0.44193  Biso   1.000  He
  He82     1.0000 0.77829  0.91486  0.42450  Biso   1.000  He
  Ne82     1.0000 0.76438  0.88374  0.42788  Biso   1.000  Ne
  Ne83     1.0000 0.31950  0.61099  0.86832  Biso   1.000  Ne
  He83     1.0000 0.33915  0.61545  0.89591  Biso   1.000  He
  He84     1.0000 0.36382  0.59541  0.90373  Biso   1.000  He
  Ne84     1.0000 0.37806  0.60229  0.93410  Biso   1.000  Ne
  Ne85     1.0000 0.81881  0.82515  0.09396  Biso   1.000  Ne
  He85     1.0000 0.81291  0.79709  0.11321  Biso   1.000  He
  He86     1.0000 0.83420  0.77232  0.11038  Biso   1.000  He
  Ne86     1.0000 0.82442  0.74379  0.12622  Biso   1.000  Ne
  Ne87     1.0000 0.18487  0.79983  0.09061  Biso   1.000  Ne
  He87     1.0000 0.19411  0.83051  0.08448  Biso   1.000  He
  He88     1.0000 0.22982  0.83429  0.08450  Biso   1.000  He
  Ne88     1.0000 0.23953  0.86829  0.07775  Biso   1.000  Ne
  Ne89     1.0000 0.45971  0.65556  0.14841  Biso   1.000  Ne
  He89     1.0000 0.44344  0.66061  0.17635  Biso   1.000  He
  He90     1.0000 0.44046  0.69220  0.18777  Biso   1.000  He
  Ne90     1.0000 0.42073  0.69353  0.21509  Biso   1.000  Ne
  Ne91     1.0000 0.11852  0.80439  0.15779  Biso   1.000  Ne
  He91     1.0000 0.12915  0.83374  0.16755  Biso   1.000  He
  He92     1.0000 0.11528  0.85893  0.14934  Biso   1.000  He
  Ne92     1.0000 0.12140  0.88774  0.16054  Biso   1.000  Ne
  Ne93     1.0000 0.12590  0.66776  0.56090  Biso   1.000  Ne
  He93     1.0000 0.15121  0.65014  0.57417  Biso   1.000  He
  He94     1.0000 0.14464  0.61820  0.58013  Biso   1.000  He
  Ne94     1.0000 0.16886  0.59888  0.58443  Biso   1.000  Ne
  Ne95     1.0000 0.81766  0.14756  0.10874  Biso   1.000  Ne
  He95     1.0000 0.84911  0.13165  0.11271  Biso   1.000  He
  He96     1.0000 0.85978  0.11604  0.08589  Biso   1.000  He
  Ne96     1.0000 0.84982  0.08331  0.08261  Biso   1.000  Ne
  Ne97     1.0000 0.31970  0.83287  0.72658  Biso   1.000  Ne
  He97     1.0000 0.31085  0.85073  0.69977  Biso   1.000  He
  He98     1.0000 0.33536  0.87022  0.68685  Biso   1.000  He
  Ne98     1.0000 0.32343  0.88939  0.66322  Biso   1.000  Ne
  Ne99     1.0000 0.63324  0.90890  0.55476  Biso   1.000  Ne
  He99     1.0000 0.61451  0.89534  0.57971  Biso   1.000  He
  He100    1.0000 0.60754  0.91749  0.60348  Biso   1.000  He
  Ne100    1.0000 0.58007  0.90879  0.62084  Biso   1.000  Ne
  Ne101    1.0000 0.11051  0.79065  0.82717  Biso   1.000  Ne
  He101    1.0000 0.13381  0.81395  0.83555  Biso   1.000  He
  He102    1.0000 0.16554  0.80519  0.82743  Biso   1.000  He
  Ne102    1.0000 0.19239  0.82480  0.83067  Biso   1.000  Ne
  Ne103    1.0000 0.75442  0.90409  0.30017  Biso   1.000  Ne
  He103    1.0000 0.74851  0.91221  0.26780  Biso   1.000  He
  He104    1.0000 0.71779  0.92462  0.26482  Biso   1.000  He
  Ne104    1.0000 0.70607  0.93038  0.23286  Biso   1.000  Ne
  Ne105    1.0000 0.69300  0.34380  0.17849  Biso   1.000  Ne
  He105    1.0000 0.71826  0.35842  0.15982  Biso   1.000  He
  He106    1.0000 0.71943  0.39110  0.16596  Biso   1.000  He
  Ne106    1.0000 0.74547  0.40299  0.15066  Biso   1.000  Ne
  Ne107    1.0000 0.32805  0.56059  0.74283  Biso   1.000  Ne
  He107    1.0000 0.36025  0.56333  0.74151  Biso   1.000  He
  He108    1.0000 0.37782  0.53893  0.73299  Biso   1.000  He
  Ne108    1.0000 0.41071  0.54588  0.72672  Biso   1.000  Ne
  Ne109    1.0000 0.40774  0.16638  0.42449  Biso   1.000  Ne
  He109    1.0000 0.38244  0.18887  0.43488  Biso   1.000  He
  He110    1.0000 0.37778  0.21285  0.41139  Biso   1.000  He
  Ne110    1.0000 0.35297  0.23640  0.41892  Biso   1.000  Ne
  Ne111    1.0000 0.58573  0.86208  0.69357  Biso   1.000  Ne
  He111    1.0000 0.59523  0.89344  0.69097  Biso   1.000  He
  He112    1.0000 0.62567  0.90410  0.70319  Biso   1.000  He
  Ne112    1.0000 0.65182  0.90268  0.68251  Biso   1.000  Ne
  Ne113    1.0000 0.33833  0.84700  0.39292  Biso   1.000  Ne
  He113    1.0000 0.30953  0.84708  0.41046  Biso   1.000  He
  He114    1.0000 0.28451  0.86072  0.39170  Biso   1.000  He
  Ne114    1.0000 0.25403  0.86085  0.40756  Biso   1.000  Ne
  Ne115    1.0000 0.64661  0.82437  0.41276  Biso   1.000  Ne
  He115    1.0000 0.67836  0.81256  0.41716  Biso   1.000  He
  He116    1.0000 0.68965  0.79805  0.39073  Biso   1.000  He
  Ne116    1.0000 0.71951  0.78756  0.39363  Biso   1.000  Ne
  Ne117    1.0000 0.70242  0.50678  0.30440  Biso   1.000  Ne
  He117    1.0000 0.71788  0.48953  0.32735  Biso   1.000  He
  He118    1.0000 0.70838  0.49546  0.35830  Biso   1.000  He
  Ne118    1.0000 0.71921  0.47519  0.37927  Biso   1.000  Ne
  Ne119    1.0000 0.35279  0.36301  0.53672  Biso   1.000  Ne
  He119    1.0000 0.33774  0.34417  0.55863  Biso   1.000  He
  He120    1.0000 0.35503  0.33324  0.58257  Biso   1.000  He
  Ne120    1.0000 0.34250  0.31157  0.60730  Biso   1.000  Ne
  Ne121    1.0000 0.50791  0.43397  0.01926  Biso   1.000  Ne
  He121    1.0000 0.48144  0.42665  0.03859  Biso   1.000  He
  He122    1.0000 0.48462  0.43594  0.07038  Biso   1.000  He
  Ne122    1.0000 0.45604  0.43421  0.08844  Biso   1.000  Ne
  Ne123    1.0000 0.27874  0.34679  0.73404  Biso   1.000  Ne
  He123    1.0000 0.26238  0.37321  0.72049  Biso   1.000  He
  He124    1.0000 0.23173  0.37392  0.73295  Biso   1.000  He
  Ne124    1.0000 0.21374  0.39822  0.71996  Biso   1.000  Ne
  Ne125    1.0000 0.23478  0.05541  0.82669  Biso   1.000  Ne
  He125    1.0000 0.21154  0.05909  0.84717  Biso   1.000  He
  He126    1.0000 0.18249  0.06119  0.83109  Biso   1.000  He
  Ne126    1.0000 0.15650  0.06989  0.85037  Biso   1.000  Ne
  Ne127    1.0000 0.90783  0.38526  0.25234  Biso   1.000  Ne
  He127    1.0000 0.93190  0.37289  0.27076  Biso   1.000  He
  He128    1.0000 0.92642  0.37757  0.30318  Biso   1.000  He
  Ne128    1.0000 0.94905  0.36532  0.32468  Biso   1.000  Ne
  Ne129    1.0000 0.21554  0.56554  0.41527  Biso   1.000  Ne
  He129    1.0000 0.22563  0.59821  0.42085  Biso   1.000  He
  He130    1.0000 0.20730  0.62297  0.40425  Biso   1.000  He
  Ne130    1.0000 0.21710  0.65376  0.40923  Biso   1.000  Ne
  Ne131    1.0000 0.19548  0.39196  0.31469  Biso   1.000  Ne
  He131    1.0000 0.16662  0.38583  0.33234  Biso   1.000  He
  He132    1.0000 0.13741  0.39107  0.31575  Biso   1.000  He
  Ne132    1.0000 0.11000  0.38249  0.33344  Biso   1.000  Ne
  Ne133    1.0000 0.67256  0.79708  0.58611  Biso   1.000  Ne
  He133    1.0000 0.64965  0.80546  0.60964  Biso   1.000  He
  He134    1.0000 0.62251  0.78834  0.60439  Biso   1.000  He
  Ne134    1.0000 0.59778  0.80130  0.62140  Biso   1.000  Ne
  Ne135    1.0000 0.96631  0.90554  0.96895  Biso   1.000  Ne
  He135    1.0000 0.95271  0.93499  0.97260  Biso   1.000  He
  He136    1.0000 0.95062  0.93992  0.00609  Biso   1.000  He
  Ne136    1.0000 0.93898  0.96933  0.01781  Biso   1.000  Ne
  Ne137    1.0000 0.14812  0.23212  0.43514  Biso   1.000  Ne
  He137    1.0000 0.14215  0.25986  0.41581  Biso   1.000  He
  He138    1.0000 0.13481  0.28856  0.43100  Biso   1.000  He
  Ne138    1.0000 0.12761  0.31273  0.41093  Biso   1.000  Ne
  Ne139    1.0000 0.46929  0.84141  0.26864  Biso   1.000  Ne
  He139    1.0000 0.47183  0.81110  0.27728  Biso   1.000  He
  He140    1.0000 0.44689  0.80162  0.29889  Biso   1.000  He
  Ne140    1.0000 0.44657  0.76853  0.30975  Biso   1.000  Ne
  Ne141    1.0000 0.18570  0.04361  0.25441  Biso   1.000  Ne
  He141    1.0000 0.20395  0.06802  0.24552  Biso   1.000  He
  He142    1.0000 0.22264  0.06056  0.21911  Biso   1.000  He
  Ne142    1.0000 0.23464  0.09040  0.20333  Biso   1.000  Ne
  Ne143    1.0000 0.44572  0.38652  0.91488  Biso   1.000  Ne
  He143    1.0000 0.44117  0.42009  0.92051  Biso   1.000  He
  He144    1.0000 0.46309  0.43218  0.94284  Biso   1.000  He
  Ne144    1.0000 0.45264  0.46254  0.95153  Biso   1.000  Ne
  Ne145    1.0000 0.95318  0.64270  0.58219  Biso   1.000  Ne
  He145    1.0000 0.92923  0.66291  0.57705  Biso   1.000  He
  He146    1.0000 0.89770  0.65267  0.58198  Biso   1.000  He
  Ne146    1.0000 0.87386  0.67575  0.57577  Biso   1.000  Ne
  Ne147    1.0000 0.66546  0.91420  0.38071  Biso   1.000  Ne
  He147    1.0000 0.67026  0.89545  0.35509  Biso   1.000  He
  He148    1.0000 0.64312  0.88948  0.33602  Biso   1.000  He
  Ne148    1.0000 0.64921  0.86674  0.31505  Biso   1.000  Ne
  Ne149    1.0000 0.65379  0.68992  0.06858  Biso   1.000  Ne
  He149    1.0000 0.62591  0.66792  0.07246  Biso   1.000  He
  He150    1.0000 0.63590  0.63865  0.07262  Biso   1.000  He
  Ne150    1.0000 0.60907  0.61834  0.07573  Biso   1.000  Ne
  Ne151    1.0000 0.10205  0.94961  0.92869  Biso   1.000  Ne
  He151    1.0000 0.08391  0.94108  0.95490  Biso   1.000  He
  He152    1.0000 0.09855  0.92368  0.97775  Biso   1.000  He
  Ne152    1.0000 0.08048  0.91954  0.00442  Biso   1.000  Ne
  Ne153    1.0000 0.70646  0.30719  0.83502  Biso   1.000  Ne
  He153    1.0000 0.71538  0.30822  0.86816  Biso   1.000  He
  He154    1.0000 0.70909  0.27793  0.88490  Biso   1.000  He
  Ne154    1.0000 0.71519  0.27554  0.91843  Biso   1.000  Ne
  Ne155    1.0000 0.88645  0.40463  0.67085  Biso   1.000  Ne
  He155    1.0000 0.87939  0.39145  0.64144  Biso   1.000  He
  He156    1.0000 0.86318  0.36173  0.64669  Biso   1.000  He
  Ne156    1.0000 0.85612  0.34201  0.62240  Biso   1.000  Ne
  Ne157    1.0000 0.06585  0.07089  0.04212  Biso   1.000  Ne
  He157    1.0000 0.06324  0.04798  0.06817  Biso   1.000  He
  He158    1.0000 0.08866  0.02561  0.06696  Biso   1.000  He
  Ne158    1.0000 0.08948  0.00394  0.09252  Biso   1.000  Ne
  Ne159    1.0000 0.30488  0.39478  0.07996  Biso   1.000  Ne
  He159    1.0000 0.33585  0.40345  0.09165  Biso   1.000  He
  He160    1.0000 0.33804  0.39486  0.12135  Biso   1.000  He
  Ne160    1.0000 0.36464  0.40136  0.13769  Biso   1.000  Ne
  Ne161    1.0000 0.42876  0.22264  0.57988  Biso   1.000  Ne
  He161    1.0000 0.42551  0.19302  0.59345  Biso   1.000  He
  He162    1.0000 0.39738  0.18811  0.61050  Biso   1.000  He
  Ne162    1.0000 0.39632  0.15623  0.62391  Biso   1.000  Ne
  Ne163    1.0000 0.82832  0.88239  0.14989  Biso   1.000  Ne
  He163    1.0000 0.85970  0.88593  0.14444  Biso   1.000  He
  He164    1.0000 0.87784  0.89051  0.17294  Biso   1.000  He
  Ne164    1.0000 0.90946  0.89730  0.16664  Biso   1.000  Ne
  Ne165    1.0000 0.60768  0.65726  0.25598  Biso   1.000  Ne
  He165    1.0000 0.59472  0.65187  0.28628  Biso   1.000  He
  He166    1.0000 0.58079  0.67771  0.29712  Biso   1.000  He
  Ne166    1.0000 0.57311  0.67996  0.32713  Biso   1.000  Ne
  Ne167    1.0000 0.73237  0.14620  0.67743  Biso   1.000  Ne
  He167    1.0000 0.72853  0.14938  0.64376  Biso   1.000  He
  He168    1.0000 0.71219  0.12448  0.63041  Biso   1.000  He
  Ne168    1.0000 0.70761  0.13253  0.59726  Biso   1.000  Ne
  Ne169    1.0000 0.34787  0.75037  0.09989  Biso   1.000  Ne
  He169    1.0000 0.35750  0.72168  0.08697  Biso   1.000  He
  He170    1.0000 0.37842  0.70583  0.10890  Biso   1.000  He
  Ne170    1.0000 0.39618  0.67966  0.09702  Biso   1.000  Ne
  Ne171    1.0000 0.90082  0.56813  0.57895  Biso   1.000  Ne
  He171    1.0000 0.87152  0.57218  0.56383  Biso   1.000  He
  He172    1.0000 0.84777  0.58561  0.58522  Biso   1.000  He
  Ne172    1.0000 0.81980  0.59235  0.56920  Biso   1.000  Ne
  Ne173    1.0000 0.36996  0.08702  0.41194  Biso   1.000  Ne
  He173    1.0000 0.38003  0.07735  0.38310  Biso   1.000  He
  He174    1.0000 0.41140  0.06678  0.38488  Biso   1.000  He
  Ne174    1.0000 0.42291  0.05717  0.35527  Biso   1.000  Ne
  Ne175    1.0000 0.45146  0.85129  0.58382  Biso   1.000  Ne
  He175    1.0000 0.42735  0.87425  0.58896  Biso   1.000  He
  He176    1.0000 0.43743  0.90470  0.58764  Biso   1.000  He
  Ne176    1.0000 0.41313  0.92605  0.59487  Biso   1.000  Ne
  Ne177    1.0000 0.24925  0.82095  0.89894  Biso   1.000  Ne
  He177    1.0000 0.23074  0.84931  0.89370  Biso   1.000  He
  He178    1.0000 0.21729  0.86432  0.92023  Biso   1.000  He
  Ne178    1.0000 0.19958  0.89214  0.91022  Biso   1.000  Ne
  Ne179    1.0000 0.45842  0.11965  0.68162  Biso   1.000  Ne
  He179    1.0000 0.44738  0.12415  0.71509  Biso   1.000  He
  He180    1.0000 0.44080  0.09573  0.73080  Biso   1.000  He
  Ne180    1.0000 0.43337  0.09611  0.76031  Biso   1.000  Ne
  Ne181    1.0000 0.54434  0.91768  0.53717  Biso   1.000  Ne
  He181    1.0000 0.52131  0.91141  0.51067  Biso   1.000  He
  He182    1.0000 0.49214  0.92994  0.51427  Biso   1.000  He
  Ne182    1.0000 0.47477  0.93255  0.48701  Biso   1.000  Ne
  Ne183    1.0000 0.94073  0.66309  0.41319  Biso   1.000  Ne
  He183    1.0000 0.93651  0.64169  0.38954  Biso   1.000  He
  He184    1.0000 0.90892  0.64863  0.36859  Biso   1.000  He
  Ne184    1.0000 0.91698  0.66052  0.33869  Biso   1.000  Ne
  Ne185    1.0000 0.54336  0.45733  0.92860  Biso   1.000  Ne
  He185    1.0000 0.56471  0.44299  0.95064  Biso   1.000  He
  He186    1.0000 0.59239  0.43179  0.93823  Biso   1.000  He
  Ne186    1.0000 0.61589  0.42593  0.96190  Biso   1.000  Ne
  Ne187    1.0000 0.17502  0.40302  0.43916  Biso   1.000  Ne
  He187    1.0000 0.18238  0.37263  0.43855  Biso   1.000  He
  He188    1.0000 0.21374  0.36717  0.42873  Biso   1.000  He
  Ne188    1.0000 0.22550  0.33418  0.43244  Biso   1.000  Ne
  Ne189    1.0000 0.38156  0.41994  0.73079  Biso   1.000  Ne
  He189    1.0000 0.38890  0.41892  0.69582  Biso   1.000  He
  He190    1.0000 0.40173  0.44948  0.68229  Biso   1.000  He
  Ne190    1.0000 0.37712  0.47084  0.66920  Biso   1.000  Ne
  Ne191    1.0000 0.34396  0.78987  0.64282  Biso   1.000  Ne
  He191    1.0000 0.31742  0.79151  0.62280  Biso   1.000  He
  He192    1.0000 0.29553  0.81581  0.63219  Biso   1.000  He
  Ne192    1.0000 0.27113  0.81815  0.61049  Biso   1.000  Ne
  Ne193    1.0000 0.94561  0.79201  0.08389  Biso   1.000  Ne
  He193    1.0000 0.94116  0.77467  0.11059  Biso   1.000  He
  He194    1.0000 0.94945  0.74239  0.10800  Biso   1.000  He
  Ne194    1.0000 0.94677  0.72358  0.13599  Biso   1.000  Ne
  Ne195    1.0000 0.40856  0.77822  0.39133  Biso   1.000  Ne
  He195    1.0000 0.43118  0.80165  0.38791  Biso   1.000  He
  He196    1.0000 0.44740  0.80658  0.41614  Biso   1.000  He
  Ne196    1.0000 0.46469  0.83468  0.41982  Biso   1.000  Ne
  Ne197    1.0000 0.49253  0.60419  0.30157  Biso   1.000  Ne
  He197    1.0000 0.52065  0.58890  0.29859  Biso   1.000  He
  He198    1.0000 0.52934  0.57566  0.32812  Biso   1.000  He
  Ne198    1.0000 0.55832  0.56143  0.32815  Biso   1.000  Ne
  Ne199    1.0000 0.71276  0.89722  0.58226  Biso   1.000  Ne
  He199    1.0000 0.74431  0.88706  0.58506  Biso   1.000  He
  He200    1.0000 0.75249  0.86460  0.60791  Biso   1.000  He
  Ne200    1.0000 0.77943  0.84821  0.60333  Biso   1.000  Ne
  Ne201    1.0000 0.97747  0.48941  0.45552  Biso   1.000  Ne
  He201    1.0000 0.96313  0.46430  0.43688  Biso   1.000  He
  He202    1.0000 0.98576  0.44210  0.42562  Biso   1.000  He
  Ne202    1.0000 0.97473  0.41943  0.40778  Biso   1.000  Ne
  Ne203    1.0000 0.68097  0.67620  0.89097  Biso   1.000  Ne
  He203    1.0000 0.65321  0.67434  0.90822  Biso   1.000  He
  He204    1.0000 0.63034  0.65241  0.90034  Biso   1.000  He
  Ne204    1.0000 0.60340  0.65055  0.92091  Biso   1.000  Ne
  Ne205    1.0000 0.89058  0.38440  0.41367  Biso   1.000  Ne
  He205    1.0000 0.86405  0.39284  0.39597  Biso   1.000  He
  He206    1.0000 0.85970  0.37439  0.36894  Biso   1.000  He
  Ne206    1.0000 0.83515  0.38258  0.35082  Biso   1.000  Ne
  Ne207    1.0000 0.16436  0.04452  0.08128  Biso   1.000  Ne
  He207    1.0000 0.16713  0.06180  0.10937  Biso   1.000  He
  He208    1.0000 0.14763  0.05038  0.13237  Biso   1.000  He
  Ne208    1.0000 0.14859  0.06740  0.16146  Biso   1.000  Ne
  Ne209    1.0000 0.63332  0.18178  0.59050  Biso   1.000  Ne
  He209    1.0000 0.64001  0.20406  0.61363  Biso   1.000  He
  He210    1.0000 0.61644  0.22855  0.61381  Biso   1.000  He
  Ne210    1.0000 0.62080  0.25333  0.63554  Biso   1.000  Ne
  Ne211    1.0000 0.40751  0.22074  0.32081  Biso   1.000  Ne
  He211    1.0000 0.41243  0.18995  0.33321  Biso   1.000  He
  He212    1.0000 0.42847  0.16864  0.31338  Biso   1.000  He
  Ne212    1.0000 0.43618  0.13990  0.32816  Biso   1.000  Ne
  Ne213    1.0000 0.08373  0.21894  0.89974  Biso   1.000  Ne
  He213    1.0000 0.08821  0.20435  0.87050  Biso   1.000  He
  He214    1.0000 0.11907  0.19044  0.86698  Biso   1.000  He
  Ne214    1.0000 0.12373  0.17441  0.83887  Biso   1.000  Ne
  Ne215    1.0000 0.92604  0.77133  0.90417  Biso   1.000  Ne
  He215    1.0000 0.94056  0.77045  0.87256  Biso   1.000  He
  He216    1.0000 0.92866  0.79384  0.85038  Biso   1.000  He
  Ne216    1.0000 0.94456  0.79180  0.82135  Biso   1.000  Ne
  Ne217    1.0000 0.11947  0.13660  0.14723  Biso   1.000  Ne
  He217    1.0000 0.12186  0.15706  0.17344  Biso   1.000  He
  He218    1.0000 0.11498  0.18841  0.16248  Biso   1.000  He
  Ne218    1.0000 0.11893  0.21383  0.18460  Biso   1.000  Ne
  Ne219    1.0000 0.22383  0.20030  0.40654  Biso   1.000  Ne
  He219    1.0000 0.25028  0.18302  0.41755  Biso   1.000  He
  He220    1.0000 0.27166  0.17327  0.39439  Biso   1.000  He
  Ne220    1.0000 0.29744  0.15496  0.40534  Biso   1.000  Ne
  Ne221    1.0000 0.21864  0.88845  0.16198  Biso   1.000  Ne
  He221    1.0000 0.24636  0.86858  0.16112  Biso   1.000  He
  He222    1.0000 0.27026  0.87684  0.18425  Biso   1.000  He
  Ne222    1.0000 0.29515  0.85377  0.18449  Biso   1.000  Ne
  Ne223    1.0000 0.43773  0.57093  0.81265  Biso   1.000  Ne
  He223    1.0000 0.42247  0.56984  0.84439  Biso   1.000  He
  He224    1.0000 0.44322  0.55404  0.86406  Biso   1.000  He
  Ne224    1.0000 0.43361  0.55361  0.89356  Biso   1.000  Ne
  Ne225    1.0000 0.69590  0.33909  0.08749  Biso   1.000  Ne
  He225    1.0000 0.70449  0.30675  0.09081  Biso   1.000  He
  He226    1.0000 0.68307  0.28953  0.11206  Biso   1.000  He
  Ne226    1.0000 0.69184  0.25718  0.12062  Biso   1.000  Ne
  Ne227    1.0000 0.99821  0.95409  0.08737  Biso   1.000  Ne
  He227    1.0000 0.99492  0.92412  0.07108  Biso   1.000  He
  He228    1.0000 0.97747  0.89830  0.08506  Biso   1.000  He
  Ne228    1.0000 0.97559  0.87252  0.06700  Biso   1.000  Ne
  Ne229    1.0000 0.09854  0.11813  0.92712  Biso   1.000  Ne
  He229    1.0000 0.10737  0.08591  0.93207  Biso   1.000  He
  He230    1.0000 0.09896  0.07381  0.96026  Biso   1.000  He
  Ne230    1.0000 0.11061  0.04326  0.96650  Biso   1.000  Ne
  Ne231    1.0000 0.64127  0.06463  0.67608  Biso   1.000  Ne
  He231    1.0000 0.63647  0.09825  0.67043  Biso   1.000  He
  He232    1.0000 0.62230  0.11333  0.69537  Biso   1.000  He
  Ne232    1.0000 0.62049  0.14723  0.68966  Biso   1.000  Ne
  Ne233    1.0000 0.66468  0.07779  0.31277  Biso   1.000  Ne
  He233    1.0000 0.63998  0.06002  0.32971  Biso   1.000  He
  He234    1.0000 0.63844  0.06451  0.36275  Biso   1.000  He
  Ne234    1.0000 0.61368  0.05212  0.37789  Biso   1.000  Ne
  Ne235    1.0000 0.69796  0.57736  0.23269  Biso   1.000  Ne
  He235    1.0000 0.72330  0.56523  0.21631  Biso   1.000  He
  He236    1.0000 0.74935  0.58911  0.21440  Biso   1.000  He
  Ne236    1.0000 0.77300  0.58217  0.19202  Biso   1.000  Ne
  Ne237    1.0000 0.19786  0.32607  0.60376  Biso   1.000  Ne
  He237    1.0000 0.21135  0.35515  0.61835  Biso   1.000  He
  He238    1.0000 0.19241  0.38217  0.61521  Biso   1.000  He
  Ne238    1.0000 0.20121  0.40460  0.63638  Biso   1.000  Ne
  Ne239    1.0000 0.58174  0.39881  0.04536  Biso   1.000  Ne
  He239    1.0000 0.60109  0.40432  0.07281  Biso   1.000  He
  He240    1.0000 0.59266  0.38206  0.09638  Biso   1.000  He
  Ne240    1.0000 0.60906  0.38499  0.12686  Biso   1.000  Ne
