data_image0
_cell_length_a       46.5616
_cell_length_b       47.3946
_cell_length_c       46.6074
_cell_angle_alpha    90
_cell_angle_beta     90
_cell_angle_gamma    90

_symmetry_space_group_name_H-M    "P 1"
_symmetry_int_tables_number       1

loop_
  _symmetry_equiv_pos_as_xyz
  'x, y, z'

loop_
  _atom_site_label
  _atom_site_occupancy
  _atom_site_fract_x
  _atom_site_fract_y
  _atom_site_fract_z
  _atom_site_thermal_displace_type
  _atom_site_B_iso_or_equiv
  _atom_site_type_symbol
  Ne1      1.0000 0.69428  0.38009  0.92145  Biso   1.000  Ne
  He1      1.0000 0.66216  0.37892  0.91398  Biso   1.000  He
  He2      1.0000 0.64308  0.37789  0.93961  Biso   1.000  He
  Ne2      1.0000 0.61375  0.39335  0.93382  Biso   1.000  Ne
  Ne3      1.0000 0.61052  0.11523  0.60950  Biso   1.000  Ne
  He3      1.0000 0.62421  0.08738  0.59920  Biso   1.000  He
  He4      1.0000 0.62165  0.06125  0.61910  Biso   1.000  He
  Ne4      1.0000 0.63362  0.03337  0.60191  Biso   1.000  Ne
  Ne5      1.0000 0.15146  0.04768  0.06953  Biso   1.000  Ne
  He5      1.0000 0.17494  0.07136  0.07288  Biso   1.000  He
  He6      1.0000 0.20592  0.05772  0.07843  Biso   1.000  He
  Ne6      1.0000 0.22934  0.08046  0.08669  Biso   1.000  Ne
  Ne7      1.0000 0.09784  0.58973  0.68857  Biso   1.000  Ne
  He7      1.0000 0.10106  0.61970  0.69993  Biso   1.000  He
  He8      1.0000 0.08940  0.64487  0.67934  Biso   1.000  He
  Ne8      1.0000 0.08538  0.67691  0.68880  Biso   1.000  Ne
  Ne9      1.0000 0.90687  0.38180  0.41033  Biso   1.000  Ne
  He9      1.0000 0.92487  0.39370  0.38534  Biso   1.000  He
  He10     1.0000 0.93405  0.37269  0.35957  Biso   1.000  He
  Ne10     1.0000 0.95609  0.38404  0.33578  Biso   1.000  Ne
  Ne11     1.0000 0.42999  0.38471  0.15497  Biso   1.000  Ne
  He11     1.0000 0.39846  0.38122  0.14554  Biso   1.000  He
  He12     1.0000 0.37600  0.36666  0.16545  Biso   1.000  He
  Ne12     1.0000 0.34586  0.36447  0.15361  Biso   1.000  Ne
  Ne13     1.0000 0.34342  0.09411  0.41599  Biso   1.000  Ne
  He13     1.0000 0.32137  0.06953  0.41822  Biso   1.000  He
  He14     1.0000 0.29216  0.08076  0.41129  Biso   1.000  He
  Ne14     1.0000 0.26849  0.05485  0.40877  Biso   1.000  Ne
  Ne15     1.0000 0.34313  0.57530  0.11015  Biso   1.000  Ne
  He15     1.0000 0.37377  0.58251  0.11276  Biso   1.000  He
  He16     1.0000 0.39570  0.55626  0.11837  Biso   1.000  He
  Ne16     1.0000 0.43000  0.56248  0.11857  Biso   1.000  Ne
  Ne17     1.0000 0.43749  0.38667  0.95455  Biso   1.000  Ne
  He17     1.0000 0.45076  0.36482  0.93178  Biso   1.000  He
  He18     1.0000 0.43453  0.33525  0.92776  Biso   1.000  He
  Ne18     1.0000 0.44965  0.31614  0.90849  Biso   1.000  Ne
  Ne19     1.0000 0.98516  0.93303  0.92381  Biso   1.000  Ne
  He19     1.0000 0.96987  0.91902  0.95050  Biso   1.000  He
  He20     1.0000 0.96222  0.94057  0.97613  Biso   1.000  He
  Ne20     1.0000 0.95195  0.92880  0.00584  Biso   1.000  Ne
  Ne21     1.0000 0.43023  0.07064  0.34116  Biso   1.000  Ne
  He21     1.0000 0.39847  0.06469  0.34488  Biso   1.000  He
  He22     1.0000 0.38118  0.05405  0.31655  Biso   1.000  He
  Ne22     1.0000 0.34992  0.04941  0.32369  Biso   1.000  Ne
  Ne23     1.0000 0.44064  0.32144  0.08269  Biso   1.000  Ne
  He23     1.0000 0.42219  0.29814  0.09954  Biso   1.000  He
  He24     1.0000 0.39079  0.29347  0.08533  Biso   1.000  He
  Ne24     1.0000 0.37521  0.26465  0.09678  Biso   1.000  Ne
  Ne25     1.0000 0.39630  0.87978  0.44937  Biso   1.000  Ne
  He25     1.0000 0.40813  0.86070  0.42665  Biso   1.000  He
  He26     1.0000 0.43464  0.87070  0.41187  Biso   1.000  He
  Ne26     1.0000 0.42673  0.88599  0.38246  Biso   1.000  Ne
  Ne27     1.0000 0.16268  0.81370  0.93288  Biso   1.000  Ne
  He27     1.0000 0.17172  0.84535  0.93331  Biso   1.000  He
  He28     1.0000 0.20389  0.85086  0.92774  Biso   1.000  He
  Ne28     1.0000 0.21508  0.88213  0.93524  Biso   1.000  Ne
  Ne29     1.0000 0.85399  0.06776  0.91826  Biso   1.000  Ne
  He29     1.0000 0.88192  0.05298  0.93144  Biso   1.000  He
  He30     1.0000 0.90380  0.07426  0.94125  Biso   1.000  He
  Ne30     1.0000 0.93219  0.06166  0.95372  Biso   1.000  Ne
  Ne31     1.0000 0.90643  0.56573  0.42556  Biso   1.000  Ne
  He31     1.0000 0.92292  0.55318  0.39951  Biso   1.000  He
  He32     1.0000 0.91199  0.56832  0.37061  Biso   1.000  He
  Ne32     1.0000 0.93370  0.55742  0.34731  Biso   1.000  Ne
  Ne33     1.0000 0.68299  0.58503  0.94554  Biso   1.000  Ne
  He33     1.0000 0.68636  0.62000  0.94708  Biso   1.000  He
  He34     1.0000 0.71719  0.63316  0.94120  Biso   1.000  He
  Ne34     1.0000 0.71340  0.66674  0.93897  Biso   1.000  Ne
  Ne35     1.0000 0.15855  0.14533  0.17770  Biso   1.000  Ne
  He35     1.0000 0.13404  0.14942  0.15445  Biso   1.000  He
  He36     1.0000 0.14299  0.15271  0.12122  Biso   1.000  He
  Ne36     1.0000 0.11683  0.16203  0.10086  Biso   1.000  Ne
  Ne37     1.0000 0.69146  0.65921  0.11210  Biso   1.000  Ne
  He37     1.0000 0.65994  0.65119  0.11766  Biso   1.000  He
  He38     1.0000 0.65385  0.62013  0.11403  Biso   1.000  He
  Ne38     1.0000 0.62203  0.61168  0.11907  Biso   1.000  Ne
  Ne39     1.0000 0.40302  0.04381  0.42955  Biso   1.000  Ne
  He39     1.0000 0.43012  0.04103  0.45243  Biso   1.000  He
  He40     1.0000 0.45914  0.05823  0.44520  Biso   1.000  He
  Ne40     1.0000 0.48341  0.06029  0.46868  Biso   1.000  Ne
  Ne41     1.0000 0.59909  0.65785  0.89580  Biso   1.000  Ne
  He41     1.0000 0.59615  0.62921  0.91288  Biso   1.000  He
  He42     1.0000 0.59173  0.63184  0.94708  Biso   1.000  He
  Ne42     1.0000 0.58525  0.60052  0.95862  Biso   1.000  Ne
  Ne43     1.0000 0.41680  0.59339  0.89196  Biso   1.000  Ne
  He43     1.0000 0.44054  0.60181  0.91315  Biso   1.000  He
  He44     1.0000 0.43747  0.63427  0.91848  Biso   1.000  He
  Ne44     1.0000 0.43049  0.64054  0.95056  Biso   1.000  Ne
  Ne45     1.0000 0.18925  0.38149  0.43516  Biso   1.000  Ne
  He45     1.0000 0.17078  0.39984  0.41701  Biso   1.000  He
  He46     1.0000 0.13682  0.39323  0.41822  Biso   1.000  He
  Ne46     1.0000 0.12059  0.39817  0.38833  Biso   1.000  Ne
  Ne47     1.0000 0.16663  0.07402  0.86724  Biso   1.000  Ne
  He47     1.0000 0.15213  0.07612  0.89847  Biso   1.000  He
  He48     1.0000 0.14160  0.04461  0.90673  Biso   1.000  He
  Ne48     1.0000 0.12732  0.04003  0.93809  Biso   1.000  Ne
  Ne49     1.0000 0.45574  0.19961  0.40842  Biso   1.000  Ne
  He49     1.0000 0.45334  0.16782  0.41717  Biso   1.000  He
  He50     1.0000 0.43099  0.15050  0.40022  Biso   1.000  He
  Ne50     1.0000 0.43339  0.11816  0.41377  Biso   1.000  Ne
  Ne51     1.0000 0.96404  0.26019  0.61351  Biso   1.000  Ne
  He51     1.0000 0.96958  0.29280  0.61199  Biso   1.000  He
  He52     1.0000 0.96404  0.30390  0.58120  Biso   1.000  He
  Ne52     1.0000 0.96342  0.33706  0.57841  Biso   1.000  Ne
  Ne53     1.0000 0.09144  0.06018  0.11128  Biso   1.000  Ne
  He53     1.0000 0.09808  0.06272  0.14223  Biso   1.000  He
  He54     1.0000 0.12757  0.04970  0.15169  Biso   1.000  He
  Ne54     1.0000 0.13714  0.05768  0.18303  Biso   1.000  Ne
  Ne55     1.0000 0.94410  0.27864  0.42502  Biso   1.000  Ne
  He55     1.0000 0.94433  0.29502  0.39814  Biso   1.000  He
  He56     1.0000 0.97374  0.28858  0.38214  Biso   1.000  He
  Ne56     1.0000 0.97159  0.30410  0.35239  Biso   1.000  Ne
  Ne57     1.0000 0.38687  0.08957  0.58099  Biso   1.000  Ne
  He57     1.0000 0.41839  0.10336  0.58580  Biso   1.000  He
  He58     1.0000 0.43861  0.08247  0.57220  Biso   1.000  He
  Ne58     1.0000 0.47077  0.08605  0.57814  Biso   1.000  Ne
  Ne59     1.0000 0.16234  0.56663  0.59395  Biso   1.000  Ne
  He59     1.0000 0.13162  0.57652  0.60419  Biso   1.000  He
  He60     1.0000 0.11624  0.60315  0.59286  Biso   1.000  He
  Ne60     1.0000 0.08677  0.61052  0.60757  Biso   1.000  Ne
