data_image0
_cell_length_a       46.8753
_cell_length_b       47.1294
_cell_length_c       46.6181
_cell_angle_alpha    90
_cell_angle_beta     90
_cell_angle_gamma    90

_symmetry_space_group_name_H-M    "P 1"
_symmetry_int_tables_number       1

loop_
  _symmetry_equiv_pos_as_xyz
  'x, y, z'

loop_
  _atom_site_label
  _atom_site_occupancy
  _atom_site_fract_x
  _atom_site_fract_y
  _atom_site_fract_z
  _atom_site_thermal_displace_type
  _atom_site_B_iso_or_equiv
  _atom_site_type_symbol
  Ne1      1.0000 0.32198  0.88847  0.60856  Biso   1.000  Ne
  He1      1.0000 0.29396  0.90186  0.62176  Biso   1.000  He
  He2      1.0000 0.28787  0.89219  0.65159  Biso   1.000  He
  Ne2      1.0000 0.25963  0.89576  0.66379  Biso   1.000  Ne
  Ne3      1.0000 0.63916  0.08455  0.65661  Biso   1.000  Ne
  He3      1.0000 0.62001  0.08047  0.63193  Biso   1.000  He
  He4      1.0000 0.63467  0.07159  0.60360  Biso   1.000  He
  Ne4      1.0000 0.61371  0.06284  0.57958  Biso   1.000  Ne
  Ne5      1.0000 0.08660  0.89674  0.83510  Biso   1.000  Ne
  He5      1.0000 0.07924  0.86738  0.85264  Biso   1.000  He
  He6      1.0000 0.09775  0.86566  0.88203  Biso   1.000  He
  Ne6      1.0000 0.08748  0.83932  0.90224  Biso   1.000  Ne
  Ne7      1.0000 0.08191  0.74429  0.45141  Biso   1.000  Ne
  He7      1.0000 0.06804  0.75285  0.42253  Biso   1.000  He
  He8      1.0000 0.07915  0.77944  0.41037  Biso   1.000  He
  Ne8      1.0000 0.06557  0.78978  0.38167  Biso   1.000  Ne
  Ne9      1.0000 0.06116  0.41960  0.62765  Biso   1.000  Ne
  He9      1.0000 0.08830  0.43374  0.61234  Biso   1.000  He
  He10     1.0000 0.10698  0.41262  0.59693  Biso   1.000  He
  Ne10     1.0000 0.13663  0.42516  0.58345  Biso   1.000  Ne
  Ne11     1.0000 0.64792  0.83678  0.58681  Biso   1.000  Ne
  He11     1.0000 0.64945  0.86991  0.58300  Biso   1.000  He
  He12     1.0000 0.65806  0.88724  0.61182  Biso   1.000  He
  Ne12     1.0000 0.65620  0.92125  0.60737  Biso   1.000  Ne
  Ne13     1.0000 0.30134  0.09932  0.44161  Biso   1.000  Ne
  He13     1.0000 0.32578  0.09775  0.42300  Biso   1.000  He
  He14     1.0000 0.31926  0.08497  0.39350  Biso   1.000  He
  Ne14     1.0000 0.34587  0.08073  0.37527  Biso   1.000  Ne
  Ne15     1.0000 0.73330  0.44816  0.18195  Biso   1.000  Ne
  He15     1.0000 0.71714  0.43601  0.15514  Biso   1.000  He
  He16     1.0000 0.73020  0.43838  0.12438  Biso   1.000  He
  Ne16     1.0000 0.71014  0.42620  0.10083  Biso   1.000  Ne
  Ne17     1.0000 0.70216  0.18176  0.07216  Biso   1.000  Ne
  He17     1.0000 0.68329  0.15892  0.05556  Biso   1.000  He
  He18     1.0000 0.69925  0.14571  0.02925  Biso   1.000  He
  Ne18     1.0000 0.68077  0.12273  0.00911  Biso   1.000  Ne
  Ne19     1.0000 0.06891  0.57978  0.57461  Biso   1.000  Ne
  He19     1.0000 0.04033  0.56904  0.58479  Biso   1.000  He
  He20     1.0000 0.04340  0.53758  0.59195  Biso   1.000  He
  Ne20     1.0000 0.01686  0.52167  0.60237  Biso   1.000  Ne
  Ne21     1.0000 0.77457  0.65058  0.43968  Biso   1.000  Ne
  He21     1.0000 0.80027  0.63328  0.43244  Biso   1.000  He
  He22     1.0000 0.79540  0.59845  0.42815  Biso   1.000  He
  Ne22     1.0000 0.82252  0.58117  0.42292  Biso   1.000  Ne
  Ne23     1.0000 0.06653  0.90007  0.10784  Biso   1.000  Ne
  He23     1.0000 0.09427  0.91176  0.09795  Biso   1.000  He
  He24     1.0000 0.11741  0.88722  0.09257  Biso   1.000  He
  Ne24     1.0000 0.14972  0.89472  0.08723  Biso   1.000  Ne
  Ne25     1.0000 0.06590  0.40228  0.33082  Biso   1.000  Ne
  He25     1.0000 0.09405  0.38110  0.33412  Biso   1.000  He
  He26     1.0000 0.12152  0.39870  0.33302  Biso   1.000  He
  Ne26     1.0000 0.15156  0.38314  0.33737  Biso   1.000  Ne
  Ne27     1.0000 0.56517  0.62256  0.09913  Biso   1.000  Ne
  He27     1.0000 0.55085  0.59665  0.08641  Biso   1.000  He
  He28     1.0000 0.56382  0.56899  0.10020  Biso   1.000  He
  Ne28     1.0000 0.55880  0.54082  0.08659  Biso   1.000  Ne
  Ne29     1.0000 0.33784  0.40210  0.86021  Biso   1.000  Ne
  He29     1.0000 0.32434  0.41677  0.88903  Biso   1.000  He
  He30     1.0000 0.29489  0.40963  0.90152  Biso   1.000  He
  Ne30     1.0000 0.28925  0.42075  0.93276  Biso   1.000  Ne
  Ne31     1.0000 0.56756  0.84368  0.58608  Biso   1.000  Ne
  He31     1.0000 0.56208  0.87530  0.59307  Biso   1.000  He
  He32     1.0000 0.56398  0.88383  0.62627  Biso   1.000  He
  Ne32     1.0000 0.55434  0.91459  0.63519  Biso   1.000  Ne
  Ne33     1.0000 0.21733  0.14603  0.94144  Biso   1.000  Ne
  He33     1.0000 0.23832  0.14180  0.96628  Biso   1.000  He
  He34     1.0000 0.26882  0.16178  0.96847  Biso   1.000  He
  Ne34     1.0000 0.28546  0.15023  0.99515  Biso   1.000  Ne
  Ne35     1.0000 0.46755  0.54211  0.09362  Biso   1.000  Ne
  He35     1.0000 0.45269  0.53318  0.06485  Biso   1.000  He
  He36     1.0000 0.42295  0.52360  0.07060  Biso   1.000  He
  Ne36     1.0000 0.40489  0.51649  0.04303  Biso   1.000  Ne
  Ne37     1.0000 0.38110  0.79915  0.69259  Biso   1.000  Ne
  He37     1.0000 0.39837  0.81990  0.70894  Biso   1.000  He
  He38     1.0000 0.40885  0.80714  0.73723  Biso   1.000  He
  Ne38     1.0000 0.42998  0.82502  0.75232  Biso   1.000  Ne
  Ne39     1.0000 0.06711  0.06616  0.80623  Biso   1.000  Ne
  He39     1.0000 0.05825  0.09821  0.81546  Biso   1.000  He
  He40     1.0000 0.08198  0.11679  0.82641  Biso   1.000  He
  Ne40     1.0000 0.07253  0.14707  0.83183  Biso   1.000  Ne
  Ne41     1.0000 0.38165  0.06943  0.47149  Biso   1.000  Ne
  He41     1.0000 0.39965  0.05643  0.44833  Biso   1.000  He
  He42     1.0000 0.43207  0.06231  0.45045  Biso   1.000  He
  Ne42     1.0000 0.44348  0.05484  0.42336  Biso   1.000  Ne
  Ne43     1.0000 0.54037  0.93272  0.40648  Biso   1.000  Ne
  He43     1.0000 0.52972  0.90384  0.41904  Biso   1.000  He
  He44     1.0000 0.55010  0.88857  0.43922  Biso   1.000  He
  Ne44     1.0000 0.53878  0.85820  0.44857  Biso   1.000  Ne
  Ne45     1.0000 0.13167  0.39717  0.42716  Biso   1.000  Ne
  He45     1.0000 0.09884  0.40264  0.43294  Biso   1.000  He
  He46     1.0000 0.08690  0.42065  0.40606  Biso   1.000  He
  Ne46     1.0000 0.05481  0.42533  0.40813  Biso   1.000  Ne
  Ne47     1.0000 0.57906  0.08233  0.33658  Biso   1.000  Ne
  He47     1.0000 0.56868  0.07487  0.36878  Biso   1.000  He
  He48     1.0000 0.59333  0.07178  0.38735  Biso   1.000  He
  Ne48     1.0000 0.58455  0.06193  0.42037  Biso   1.000  Ne
  Ne49     1.0000 0.08871  0.27645  0.15379  Biso   1.000  Ne
  He49     1.0000 0.09931  0.24540  0.15028  Biso   1.000  He
  He50     1.0000 0.07515  0.22381  0.14360  Biso   1.000  He
  Ne50     1.0000 0.08726  0.19281  0.13813  Biso   1.000  Ne
  Ne51     1.0000 0.24209  0.30684  0.45065  Biso   1.000  Ne
  He51     1.0000 0.23358  0.33734  0.45554  Biso   1.000  He
  He52     1.0000 0.25295  0.35698  0.43844  Biso   1.000  He
  Ne52     1.0000 0.25115  0.38945  0.44383  Biso   1.000  Ne
  Ne53     1.0000 0.06247  0.03603  0.08460  Biso   1.000  Ne
  He53     1.0000 0.06825  0.06334  0.09811  Biso   1.000  He
  He54     1.0000 0.05724  0.09296  0.08156  Biso   1.000  He
  Ne54     1.0000 0.06828  0.12336  0.09755  Biso   1.000  Ne
  Ne55     1.0000 0.88960  0.42315  0.33906  Biso   1.000  Ne
  He55     1.0000 0.89553  0.38959  0.33167  Biso   1.000  He
  He56     1.0000 0.88329  0.36894  0.35372  Biso   1.000  He
  Ne56     1.0000 0.89096  0.33810  0.34861  Biso   1.000  Ne
  Ne57     1.0000 0.91221  0.93492  0.13975  Biso   1.000  Ne
  He57     1.0000 0.89969  0.91854  0.11544  Biso   1.000  He
  He58     1.0000 0.90120  0.88569  0.11755  Biso   1.000  He
  Ne58     1.0000 0.88823  0.87634  0.08959  Biso   1.000  Ne
  Ne59     1.0000 0.67488  0.59634  0.91015  Biso   1.000  Ne
  He59     1.0000 0.69950  0.57749  0.90823  Biso   1.000  He
  He60     1.0000 0.71578  0.57034  0.93728  Biso   1.000  He
  Ne60     1.0000 0.74284  0.55332  0.93280  Biso   1.000  Ne
  Ne61     1.0000 0.39151  0.66788  0.17562  Biso   1.000  Ne
  He61     1.0000 0.38024  0.63592  0.16675  Biso   1.000  He
  He62     1.0000 0.40383  0.61155  0.16737  Biso   1.000  He
  Ne62     1.0000 0.39701  0.58036  0.15604  Biso   1.000  Ne
  Ne63     1.0000 0.51292  0.57198  0.00365  Biso   1.000  Ne
  He63     1.0000 0.52586  0.58525  0.97697  Biso   1.000  He
  He64     1.0000 0.54913  0.56737  0.96230  Biso   1.000  He
  Ne64     1.0000 0.56308  0.58171  0.93785  Biso   1.000  Ne
  Ne65     1.0000 0.06628  0.65785  0.63182  Biso   1.000  Ne
  He65     1.0000 0.09666  0.67388  0.62529  Biso   1.000  He
  He66     1.0000 0.12318  0.66082  0.63530  Biso   1.000  He
  Ne66     1.0000 0.14712  0.68160  0.62781  Biso   1.000  Ne
  Ne67     1.0000 0.99276  0.58313  0.49748  Biso   1.000  Ne
  He67     1.0000 0.02348  0.57905  0.50272  Biso   1.000  He
  He68     1.0000 0.03740  0.56922  0.47581  Biso   1.000  He
  Ne68     1.0000 0.06738  0.56108  0.47625  Biso   1.000  Ne
  Ne69     1.0000 0.14492  0.57393  0.40602  Biso   1.000  Ne
  He69     1.0000 0.13747  0.59154  0.38031  Biso   1.000  He
  He70     1.0000 0.11579  0.57828  0.35940  Biso   1.000  He
  Ne70     1.0000 0.10336  0.59708  0.33526  Biso   1.000  Ne
  Ne71     1.0000 0.21329  0.87744  0.88238  Biso   1.000  Ne
  He71     1.0000 0.19505  0.87640  0.85442  Biso   1.000  He
  He72     1.0000 0.21421  0.87547  0.83084  Biso   1.000  He
  Ne72     1.0000 0.20109  0.87719  0.79904  Biso   1.000  Ne
  Ne73     1.0000 0.88626  0.24513  0.44223  Biso   1.000  Ne
  He73     1.0000 0.87891  0.27171  0.42586  Biso   1.000  He
  He74     1.0000 0.89829  0.29497  0.43865  Biso   1.000  He
  Ne74     1.0000 0.89520  0.32507  0.42311  Biso   1.000  Ne
  Ne75     1.0000 0.40101  0.38009  0.95624  Biso   1.000  Ne
  He75     1.0000 0.41500  0.35119  0.95073  Biso   1.000  He
  He76     1.0000 0.40186  0.33413  0.92576  Biso   1.000  He
  Ne76     1.0000 0.41881  0.30502  0.92080  Biso   1.000  Ne
  Ne77     1.0000 0.47234  0.97029  0.58798  Biso   1.000  Ne
  He77     1.0000 0.44341  0.95884  0.59976  Biso   1.000  He
  He78     1.0000 0.42491  0.95549  0.57291  Biso   1.000  He
  Ne78     1.0000 0.39444  0.94769  0.58058  Biso   1.000  Ne
  Ne79     1.0000 0.37510  0.06018  0.68989  Biso   1.000  Ne
  He79     1.0000 0.39780  0.07936  0.69749  Biso   1.000  He
  He80     1.0000 0.38487  0.11016  0.70525  Biso   1.000  He
  Ne80     1.0000 0.40661  0.13120  0.71391  Biso   1.000  Ne
  Ne81     1.0000 0.07251  0.98751  0.98257  Biso   1.000  Ne
  He81     1.0000 0.08389  0.95763  0.97303  Biso   1.000  He
  He82     1.0000 0.07234  0.94798  0.94328  Biso   1.000  He
  Ne82     1.0000 0.07981  0.91596  0.93720  Biso   1.000  Ne
  Ne83     1.0000 0.62511  0.89328  0.30759  Biso   1.000  Ne
  He83     1.0000 0.63648  0.91263  0.33042  Biso   1.000  He
  He84     1.0000 0.62591  0.90773  0.36179  Biso   1.000  He
  Ne84     1.0000 0.63464  0.92882  0.38263  Biso   1.000  Ne
  Ne85     1.0000 0.28548  0.56959  0.17685  Biso   1.000  Ne
  He85     1.0000 0.25617  0.55390  0.18007  Biso   1.000  He
  He86     1.0000 0.23082  0.57346  0.17723  Biso   1.000  He
  Ne86     1.0000 0.19809  0.55605  0.17934  Biso   1.000  Ne
  Ne87     1.0000 0.61722  0.64444  0.86221  Biso   1.000  Ne
  He87     1.0000 0.59774  0.62063  0.85639  Biso   1.000  He
  He88     1.0000 0.61041  0.59872  0.83835  Biso   1.000  He
  Ne88     1.0000 0.58978  0.57667  0.82875  Biso   1.000  Ne
  Ne89     1.0000 0.75760  0.37461  0.87438  Biso   1.000  Ne
  He89     1.0000 0.72736  0.37770  0.88360  Biso   1.000  He
  He90     1.0000 0.71695  0.41010  0.88782  Biso   1.000  He
  Ne90     1.0000 0.68619  0.41037  0.90282  Biso   1.000  Ne
  Ne91     1.0000 0.96724  0.91074  0.01448  Biso   1.000  Ne
  He91     1.0000 0.98447  0.91774  0.04024  Biso   1.000  He
  He92     1.0000 0.99299  0.95108  0.04325  Biso   1.000  He
  Ne92     1.0000 0.01194  0.95951  0.06882  Biso   1.000  Ne
  Ne93     1.0000 0.92972  0.06274  0.97677  Biso   1.000  Ne
  He93     1.0000 0.93173  0.06140  0.94454  Biso   1.000  He
  He94     1.0000 0.90383  0.07314  0.92848  Biso   1.000  He
  Ne94     1.0000 0.90326  0.07096  0.89434  Biso   1.000  Ne
  Ne95     1.0000 0.37329  0.57874  0.24382  Biso   1.000  Ne
  He95     1.0000 0.39393  0.57664  0.27002  Biso   1.000  He
  He96     1.0000 0.42732  0.57037  0.26583  Biso   1.000  He
  Ne96     1.0000 0.44425  0.56975  0.29395  Biso   1.000  Ne
  Ne97     1.0000 0.67757  0.60566  0.10713  Biso   1.000  Ne
  He97     1.0000 0.65180  0.61143  0.12475  Biso   1.000  He
  He98     1.0000 0.65092  0.59915  0.15484  Biso   1.000  He
  Ne98     1.0000 0.62659  0.61269  0.17428  Biso   1.000  Ne
  Ne99     1.0000 0.89585  0.08342  0.13029  Biso   1.000  Ne
  He99     1.0000 0.87371  0.10214  0.11358  Biso   1.000  He
  He100    1.0000 0.86784  0.08883  0.08239  Biso   1.000  He
  Ne100    1.0000 0.84524  0.10836  0.06817  Biso   1.000  Ne
  Ne101    1.0000 0.34486  0.57831  0.08592  Biso   1.000  Ne
  He101    1.0000 0.36993  0.59336  0.07289  Biso   1.000  He
  He102    1.0000 0.36980  0.62379  0.08636  Biso   1.000  He
  Ne102    1.0000 0.39390  0.64245  0.07703  Biso   1.000  Ne
  Ne103    1.0000 0.89772  0.20440  0.07592  Biso   1.000  Ne
  He103    1.0000 0.90597  0.23616  0.07398  Biso   1.000  He
  He104    1.0000 0.88073  0.25245  0.06402  Biso   1.000  He
  Ne104    1.0000 0.88396  0.28415  0.06029  Biso   1.000  Ne
  Ne105    1.0000 0.29586  0.78392  0.62109  Biso   1.000  Ne
  He105    1.0000 0.28317  0.81176  0.60976  Biso   1.000  He
  He106    1.0000 0.24885  0.81348  0.61857  Biso   1.000  He
  Ne106    1.0000 0.23085  0.84007  0.60474  Biso   1.000  Ne
  Ne107    1.0000 0.56381  0.40653  0.13045  Biso   1.000  Ne
  He107    1.0000 0.57705  0.40923  0.16101  Biso   1.000  He
  He108    1.0000 0.56712  0.38221  0.18183  Biso   1.000  He
  Ne108    1.0000 0.57753  0.38372  0.21420  Biso   1.000  Ne
  Ne109    1.0000 0.55854  0.45572  0.96046  Biso   1.000  Ne
  He109    1.0000 0.56858  0.46990  0.98757  Biso   1.000  He
  He110    1.0000 0.56004  0.45085  0.01475  Biso   1.000  He
  Ne110    1.0000 0.56482  0.46136  0.04545  Biso   1.000  Ne
  Ne111    1.0000 0.14916  0.11987  0.10460  Biso   1.000  Ne
  He111    1.0000 0.14938  0.10296  0.13530  Biso   1.000  He
  He112    1.0000 0.17432  0.08367  0.13808  Biso   1.000  He
  Ne112    1.0000 0.17724  0.06200  0.16338  Biso   1.000  Ne
  Ne113    1.0000 0.27792  0.20069  0.42555  Biso   1.000  Ne
  He113    1.0000 0.30418  0.22039  0.42494  Biso   1.000  He
  He114    1.0000 0.33218  0.20472  0.41886  Biso   1.000  He
  Ne114    1.0000 0.35914  0.22566  0.41816  Biso   1.000  Ne
  Ne115    1.0000 0.93729  0.56831  0.57973  Biso   1.000  Ne
  He115    1.0000 0.93288  0.56626  0.61367  Biso   1.000  He
  He116    1.0000 0.90250  0.57312  0.62009  Biso   1.000  He
  Ne116    1.0000 0.89395  0.57705  0.65357  Biso   1.000  Ne
  Ne117    1.0000 0.55686  0.15766  0.59326  Biso   1.000  Ne
  He117    1.0000 0.59083  0.16184  0.59080  Biso   1.000  He
  He118    1.0000 0.60828  0.15851  0.61752  Biso   1.000  He
  Ne118    1.0000 0.64132  0.16356  0.61364  Biso   1.000  Ne
  Ne119    1.0000 0.82038  0.93150  0.16358  Biso   1.000  Ne
  He119    1.0000 0.82273  0.91158  0.13673  Biso   1.000  He
  He120    1.0000 0.79636  0.91467  0.11469  Biso   1.000  He
  Ne120    1.0000 0.79980  0.89651  0.08699  Biso   1.000  Ne
  Ne121    1.0000 0.42153  0.56676  0.97157  Biso   1.000  Ne
  He121    1.0000 0.42479  0.58525  0.94492  Biso   1.000  He
  He122    1.0000 0.40481  0.57326  0.92014  Biso   1.000  He
  Ne122    1.0000 0.40592  0.59517  0.89301  Biso   1.000  Ne
  Ne123    1.0000 0.70382  0.39822  0.53857  Biso   1.000  Ne
  He123    1.0000 0.71807  0.39389  0.56717  Biso   1.000  He
  He124    1.0000 0.73889  0.41592  0.57963  Biso   1.000  He
  Ne124    1.0000 0.75191  0.40159  0.60557  Biso   1.000  Ne
  Ne125    1.0000 0.14836  0.90865  0.17406  Biso   1.000  Ne
  He125    1.0000 0.13168  0.88656  0.19655  Biso   1.000  He
  He126    1.0000 0.10564  0.86996  0.18430  Biso   1.000  He
  Ne126    1.0000 0.08911  0.85008  0.20403  Biso   1.000  Ne
  Ne127    1.0000 0.03248  0.71092  0.04145  Biso   1.000  Ne
  He127    1.0000 0.00764  0.70510  0.01666  Biso   1.000  He
  He128    1.0000 0.02028  0.71588  0.98878  Biso   1.000  He
  Ne128    1.0000 0.99762  0.71838  0.96509  Biso   1.000  Ne
  Ne129    1.0000 0.39914  0.90807  0.66690  Biso   1.000  Ne
  He129    1.0000 0.39464  0.87866  0.65175  Biso   1.000  He
  He130    1.0000 0.40452  0.87515  0.61987  Biso   1.000  He
  Ne130    1.0000 0.39443  0.84780  0.60665  Biso   1.000  Ne
  Ne131    1.0000 0.40283  0.46993  0.95765  Biso   1.000  Ne
  He131    1.0000 0.43018  0.48636  0.94466  Biso   1.000  He
  He132    1.0000 0.45696  0.49092  0.96376  Biso   1.000  He
  Ne132    1.0000 0.48829  0.50133  0.94942  Biso   1.000  Ne
  Ne133    1.0000 0.40496  0.79538  0.37031  Biso   1.000  Ne
  He133    1.0000 0.38237  0.81968  0.36542  Biso   1.000  He
  He134    1.0000 0.39175  0.85042  0.37435  Biso   1.000  He
  Ne134    1.0000 0.37588  0.87822  0.36426  Biso   1.000  Ne
  Ne135    1.0000 0.52185  0.04734  0.56505  Biso   1.000  Ne
  He135    1.0000 0.54134  0.02474  0.54933  Biso   1.000  He
  He136    1.0000 0.54047  0.02777  0.51593  Biso   1.000  He
  Ne136    1.0000 0.55873  0.00499  0.50287  Biso   1.000  Ne
  Ne137    1.0000 0.92115  0.60487  0.35003  Biso   1.000  Ne
  He137    1.0000 0.92594  0.62036  0.37892  Biso   1.000  He
  He138    1.0000 0.90151  0.61878  0.40191  Biso   1.000  He
  Ne138    1.0000 0.90173  0.63997  0.42780  Biso   1.000  Ne
  Ne139    1.0000 0.37848  0.38751  0.13129  Biso   1.000  Ne
  He139    1.0000 0.36087  0.36958  0.10887  Biso   1.000  He
  He140    1.0000 0.32829  0.37506  0.11225  Biso   1.000  He
  Ne140    1.0000 0.30383  0.35187  0.10474  Biso   1.000  Ne
  Ne141    1.0000 0.52979  0.93762  0.54998  Biso   1.000  Ne
  He141    1.0000 0.52255  0.92605  0.52071  Biso   1.000  He
  He142    1.0000 0.49087  0.92043  0.51877  Biso   1.000  He
  Ne142    1.0000 0.48434  0.90781  0.49000  Biso   1.000  Ne
  Ne143    1.0000 0.97717  0.97550  0.92427  Biso   1.000  Ne
  He143    1.0000 0.94688  0.96815  0.93367  Biso   1.000  He
  He144    1.0000 0.93956  0.93605  0.92779  Biso   1.000  He
  Ne144    1.0000 0.90842  0.92684  0.93446  Biso   1.000  Ne
  Ne145    1.0000 0.96136  0.03088  0.09960  Biso   1.000  Ne
  He145    1.0000 0.94357  0.01877  0.07521  Biso   1.000  He
  He146    1.0000 0.92640  0.99099  0.08185  Biso   1.000  He
  Ne146    1.0000 0.91464  0.97241  0.05845  Biso   1.000  Ne
  Ne147    1.0000 0.70270  0.14074  0.40932  Biso   1.000  Ne
  He147    1.0000 0.67136  0.14579  0.41924  Biso   1.000  He
  He148    1.0000 0.65465  0.16285  0.39587  Biso   1.000  He
  Ne148    1.0000 0.62343  0.16538  0.40651  Biso   1.000  Ne
  Ne149    1.0000 0.81279  0.10730  0.91068  Biso   1.000  Ne
  He149    1.0000 0.78769  0.10185  0.88938  Biso   1.000  He
  He150    1.0000 0.80086  0.10084  0.85727  Biso   1.000  He
  Ne150    1.0000 0.77796  0.09994  0.83224  Biso   1.000  Ne
  Ne151    1.0000 0.40182  0.39942  0.21455  Biso   1.000  Ne
  He151    1.0000 0.39906  0.40318  0.24830  Biso   1.000  He
  He152    1.0000 0.42265  0.38607  0.26459  Biso   1.000  He
  Ne152    1.0000 0.42478  0.39357  0.29593  Biso   1.000  Ne
  Ne153    1.0000 0.01845  0.04972  0.95064  Biso   1.000  Ne
  He153    1.0000 0.05103  0.05155  0.93903  Biso   1.000  He
  He154    1.0000 0.05484  0.08135  0.92385  Biso   1.000  He
  Ne154    1.0000 0.08620  0.08331  0.90542  Biso   1.000  Ne
  Ne155    1.0000 0.11187  0.11200  0.23658  Biso   1.000  Ne
  He155    1.0000 0.08489  0.09437  0.22529  Biso   1.000  He
  He156    1.0000 0.07626  0.09847  0.19545  Biso   1.000  He
  Ne156    1.0000 0.05883  0.07520  0.18217  Biso   1.000  Ne
  Ne157    1.0000 0.79895  0.12003  0.51464  Biso   1.000  Ne
  He157    1.0000 0.80161  0.15302  0.51404  Biso   1.000  He
  He158    1.0000 0.82187  0.16007  0.48824  Biso   1.000  He
  Ne158    1.0000 0.83500  0.19171  0.49271  Biso   1.000  Ne
  Ne159    1.0000 0.07276  0.64230  0.43775  Biso   1.000  Ne
  He159    1.0000 0.09832  0.65954  0.42803  Biso   1.000  He
  He160    1.0000 0.12549  0.65407  0.44616  Biso   1.000  He
  Ne160    1.0000 0.14897  0.67818  0.44106  Biso   1.000  Ne
  Ne161    1.0000 0.78408  0.91955  0.93390  Biso   1.000  Ne
  He161    1.0000 0.81587  0.90823  0.93238  Biso   1.000  He
  He162    1.0000 0.81713  0.87753  0.91859  Biso   1.000  He
  Ne162    1.0000 0.84755  0.87058  0.91506  Biso   1.000  Ne
  Ne163    1.0000 0.27927  0.13073  0.63649  Biso   1.000  Ne
  He163    1.0000 0.30550  0.11648  0.62231  Biso   1.000  He
  He164    1.0000 0.30418  0.08433  0.62517  Biso   1.000  He
  Ne164    1.0000 0.32835  0.06716  0.61329  Biso   1.000  Ne
  Ne165    1.0000 0.38711  0.96907  0.47212  Biso   1.000  Ne
  He165    1.0000 0.38296  0.93854  0.46222  Biso   1.000  He
  He166    1.0000 0.40865  0.92301  0.46316  Biso   1.000  He
  Ne166    1.0000 0.40394  0.89302  0.45239  Biso   1.000  Ne
  Ne167    1.0000 0.81497  0.65980  0.60647  Biso   1.000  Ne
  He167    1.0000 0.84665  0.64997  0.60660  Biso   1.000  He
  He168    1.0000 0.86687  0.67354  0.60555  Biso   1.000  He
  Ne168    1.0000 0.89848  0.66222  0.60860  Biso   1.000  Ne
  Ne169    1.0000 0.89208  0.82947  0.84474  Biso   1.000  Ne
  He169    1.0000 0.89650  0.84834  0.81857  Biso   1.000  He
  He170    1.0000 0.89782  0.87912  0.82688  Biso   1.000  He
  Ne170    1.0000 0.90300  0.89996  0.79940  Biso   1.000  Ne
  Ne171    1.0000 0.41607  0.03558  0.54756  Biso   1.000  Ne
  He171    1.0000 0.40012  0.04687  0.57380  Biso   1.000  He
  He172    1.0000 0.41629  0.07075  0.58931  Biso   1.000  He
  Ne172    1.0000 0.42731  0.06041  0.62045  Biso   1.000  Ne
  Ne173    1.0000 0.04814  0.82131  0.11469  Biso   1.000  Ne
  He173    1.0000 0.07546  0.80551  0.11891  Biso   1.000  He
  He174    1.0000 0.08366  0.78470  0.09461  Biso   1.000  He
  Ne174    1.0000 0.11398  0.77035  0.09917  Biso   1.000  Ne
  Ne175    1.0000 0.91923  0.39614  0.59057  Biso   1.000  Ne
  He175    1.0000 0.90236  0.36901  0.59039  Biso   1.000  He
  He176    1.0000 0.91026  0.34575  0.60990  Biso   1.000  He
  Ne176    1.0000 0.89880  0.31271  0.60565  Biso   1.000  Ne
  Ne177    1.0000 0.81343  0.43558  0.37534  Biso   1.000  Ne
  He177    1.0000 0.82233  0.41201  0.39550  Biso   1.000  He
  He178    1.0000 0.83833  0.42238  0.42293  Biso   1.000  He
  Ne178    1.0000 0.85567  0.40273  0.44139  Biso   1.000  Ne
  Ne179    1.0000 0.39232  0.13856  0.62962  Biso   1.000  Ne
  He179    1.0000 0.39998  0.16583  0.61158  Biso   1.000  He
  He180    1.0000 0.40237  0.19090  0.63261  Biso   1.000  He
  Ne180    1.0000 0.40998  0.21886  0.61611  Biso   1.000  Ne
