data_image0
_cell_length_a       46.5777
_cell_length_b       46.5978
_cell_length_c       46.5403
_cell_angle_alpha    90
_cell_angle_beta     90
_cell_angle_gamma    90

_symmetry_space_group_name_H-M    "P 1"
_symmetry_int_tables_number       1

loop_
  _symmetry_equiv_pos_as_xyz
  'x, y, z'

loop_
  _atom_site_label
  _atom_site_occupancy
  _atom_site_fract_x
  _atom_site_fract_y
  _atom_site_fract_z
  _atom_site_thermal_displace_type
  _atom_site_B_iso_or_equiv
  _atom_site_type_symbol
  Ne1      1.0000 0.42916  0.61284  0.15553  Biso   1.000  Ne
  He1      1.0000 0.41224  0.58795  0.16486  Biso   1.000  He
  He2      1.0000 0.42432  0.57275  0.19501  Biso   1.000  He
  Ne2      1.0000 0.41410  0.53994  0.19776  Biso   1.000  Ne
  Ne3      1.0000 0.40541  0.21710  0.58471  Biso   1.000  Ne
  He3      1.0000 0.38024  0.19809  0.59502  Biso   1.000  He
  He4      1.0000 0.37677  0.17076  0.57930  Biso   1.000  He
  Ne4      1.0000 0.35163  0.15338  0.58366  Biso   1.000  Ne
  Ne5      1.0000 0.82820  0.38304  0.41324  Biso   1.000  Ne
  He5      1.0000 0.85365  0.39471  0.39465  Biso   1.000  He
  He6      1.0000 0.87625  0.37515  0.38157  Biso   1.000  He
  Ne6      1.0000 0.89798  0.38762  0.36094  Biso   1.000  Ne
  Ne7      1.0000 0.18485  0.80459  0.11311  Biso   1.000  Ne
  He7      1.0000 0.17531  0.83768  0.11303  Biso   1.000  He
  He8      1.0000 0.20143  0.85469  0.10367  Biso   1.000  He
  Ne8      1.0000 0.19662  0.88639  0.10272  Biso   1.000  Ne
  Ne9      1.0000 0.08394  0.83167  0.93732  Biso   1.000  Ne
  He9      1.0000 0.11183  0.84981  0.93852  Biso   1.000  He
  He10     1.0000 0.10600  0.88183  0.93829  Biso   1.000  He
  Ne10     1.0000 0.13205  0.90146  0.94208  Biso   1.000  Ne
  Ne11     1.0000 0.93574  0.03488  0.78526  Biso   1.000  Ne
  He11     1.0000 0.92031  0.04122  0.81276  Biso   1.000  He
  He12     1.0000 0.90260  0.06769  0.81366  Biso   1.000  He
  Ne12     1.0000 0.88095  0.06852  0.83987  Biso   1.000  Ne
  Ne13     1.0000 0.10236  0.61405  0.67050  Biso   1.000  Ne
  He13     1.0000 0.08722  0.58633  0.68373  Biso   1.000  He
  He14     1.0000 0.09173  0.58305  0.71717  Biso   1.000  He
  Ne14     1.0000 0.07960  0.55448  0.72618  Biso   1.000  Ne
  Ne15     1.0000 0.60423  0.08164  0.44532  Biso   1.000  Ne
  He15     1.0000 0.58546  0.10662  0.43170  Biso   1.000  He
  He16     1.0000 0.59775  0.12096  0.40383  Biso   1.000  He
  Ne16     1.0000 0.57777  0.14090  0.38804  Biso   1.000  Ne
  Ne17     1.0000 0.83329  0.84226  0.15474  Biso   1.000  Ne
  He17     1.0000 0.82794  0.87160  0.13877  Biso   1.000  He
  He18     1.0000 0.79489  0.88001  0.14033  Biso   1.000  He
  Ne18     1.0000 0.78654  0.90659  0.12368  Biso   1.000  Ne
  Ne19     1.0000 0.09565  0.95141  0.00945  Biso   1.000  Ne
  He19     1.0000 0.09097  0.96470  0.04079  Biso   1.000  He
  He20     1.0000 0.06155  0.95670  0.05709  Biso   1.000  He
  Ne20     1.0000 0.05912  0.96514  0.09117  Biso   1.000  Ne
  Ne21     1.0000 0.88189  0.33784  0.73474  Biso   1.000  Ne
  He21     1.0000 0.88061  0.35329  0.70708  Biso   1.000  He
  He22     1.0000 0.90657  0.37507  0.70664  Biso   1.000  He
  Ne22     1.0000 0.90496  0.40068  0.68520  Biso   1.000  Ne
  Ne23     1.0000 0.43279  0.36376  0.18440  Biso   1.000  Ne
  He23     1.0000 0.41273  0.36161  0.15738  Biso   1.000  He
  He24     1.0000 0.42924  0.35788  0.12896  Biso   1.000  He
  Ne24     1.0000 0.41017  0.35077  0.10031  Biso   1.000  Ne
  Ne25     1.0000 0.14794  0.54903  0.44797  Biso   1.000  Ne
  He25     1.0000 0.11916  0.53480  0.43394  Biso   1.000  He
  He26     1.0000 0.09276  0.52893  0.45395  Biso   1.000  He
  Ne26     1.0000 0.06624  0.51374  0.44090  Biso   1.000  Ne
  Ne27     1.0000 0.62573  0.54598  0.92799  Biso   1.000  Ne
  He27     1.0000 0.59882  0.52760  0.92849  Biso   1.000  He
  He28     1.0000 0.56933  0.54253  0.92176  Biso   1.000  He
  Ne28     1.0000 0.54406  0.52055  0.91861  Biso   1.000  Ne
  Ne29     1.0000 0.08535  0.90254  0.81969  Biso   1.000  Ne
  He29     1.0000 0.09575  0.87089  0.82299  Biso   1.000  He
  He30     1.0000 0.08520  0.85387  0.84905  Biso   1.000  He
  Ne30     1.0000 0.09192  0.82142  0.84902  Biso   1.000  Ne
  Ne31     1.0000 0.58500  0.87079  0.39962  Biso   1.000  Ne
  He31     1.0000 0.58230  0.86697  0.43173  Biso   1.000  He
  He32     1.0000 0.56057  0.88729  0.44639  Biso   1.000  He
  Ne32     1.0000 0.55718  0.88243  0.47941  Biso   1.000  Ne
  Ne33     1.0000 0.54647  0.42713  0.09988  Biso   1.000  Ne
  He33     1.0000 0.56970  0.40770  0.08739  Biso   1.000  He
  He34     1.0000 0.59873  0.41201  0.10400  Biso   1.000  He
  Ne34     1.0000 0.62148  0.39054  0.09203  Biso   1.000  Ne
  Ne35     1.0000 0.90947  0.29966  0.42909  Biso   1.000  Ne
  He35     1.0000 0.89839  0.27897  0.40469  Biso   1.000  He
  He36     1.0000 0.90436  0.29249  0.37499  Biso   1.000  He
  Ne36     1.0000 0.89223  0.27667  0.34880  Biso   1.000  Ne
  Ne37     1.0000 0.58579  0.46088  0.02898  Biso   1.000  Ne
  He37     1.0000 0.57683  0.45421  0.99790  Biso   1.000  He
  He38     1.0000 0.56763  0.42327  0.99361  Biso   1.000  He
  Ne38     1.0000 0.55551  0.41809  0.96476  Biso   1.000  Ne
  Ne39     1.0000 0.96490  0.01721  0.09225  Biso   1.000  Ne
  He39     1.0000 0.98902  0.02669  0.07189  Biso   1.000  He
  He40     1.0000 0.01739  0.03376  0.08589  Biso   1.000  He
  Ne40     1.0000 0.03674  0.04801  0.06436  Biso   1.000  Ne
  Ne41     1.0000 0.09295  0.79662  0.11128  Biso   1.000  Ne
  He41     1.0000 0.08604  0.81879  0.08574  Biso   1.000  He
  He42     1.0000 0.08990  0.85329  0.09189  Biso   1.000  He
  Ne42     1.0000 0.07736  0.87285  0.06498  Biso   1.000  Ne
  Ne43     1.0000 0.41795  0.88446  0.35758  Biso   1.000  Ne
  He43     1.0000 0.40484  0.87341  0.33112  Biso   1.000  He
  He44     1.0000 0.42509  0.86488  0.30784  Biso   1.000  He
  Ne44     1.0000 0.40739  0.85444  0.28302  Biso   1.000  Ne
  Ne45     1.0000 0.15541  0.11138  0.94180  Biso   1.000  Ne
  He45     1.0000 0.12616  0.12186  0.92689  Biso   1.000  He
  He46     1.0000 0.11357  0.14722  0.94346  Biso   1.000  He
  Ne46     1.0000 0.08345  0.15633  0.93288  Biso   1.000  Ne
  Ne47     1.0000 0.04980  0.56424  0.52189  Biso   1.000  Ne
  He47     1.0000 0.01934  0.55222  0.52896  Biso   1.000  He
  He48     1.0000 0.01532  0.54991  0.56246  Biso   1.000  He
  Ne48     1.0000 0.98599  0.54036  0.57250  Biso   1.000  Ne
  Ne49     1.0000 0.32743  0.07747  0.70549  Biso   1.000  Ne
  He49     1.0000 0.30669  0.07688  0.68037  Biso   1.000  He
  He50     1.0000 0.32164  0.06470  0.65207  Biso   1.000  He
  Ne50     1.0000 0.30046  0.05871  0.62738  Biso   1.000  Ne
  Ne51     1.0000 0.86116  0.55772  0.33297  Biso   1.000  Ne
  He51     1.0000 0.89105  0.55054  0.32032  Biso   1.000  He
  He52     1.0000 0.91390  0.56295  0.33994  Biso   1.000  He
  Ne52     1.0000 0.94383  0.56124  0.32732  Biso   1.000  Ne
  Ne53     1.0000 0.92283  0.87856  0.21653  Biso   1.000  Ne
  He53     1.0000 0.91227  0.85194  0.19481  Biso   1.000  He
  He54     1.0000 0.90778  0.82431  0.20845  Biso   1.000  He
  Ne54     1.0000 0.93434  0.80516  0.21031  Biso   1.000  Ne
  Ne55     1.0000 0.42368  0.99701  0.55655  Biso   1.000  Ne
  He55     1.0000 0.43552  0.02384  0.53825  Biso   1.000  He
  He56     1.0000 0.46829  0.02282  0.52859  Biso   1.000  He
  Ne56     1.0000 0.48300  0.05222  0.51777  Biso   1.000  Ne
  Ne57     1.0000 0.57633  0.05445  0.28204  Biso   1.000  Ne
  He57     1.0000 0.58945  0.07211  0.30606  Biso   1.000  He
  He58     1.0000 0.60958  0.09458  0.29318  Biso   1.000  He
  Ne58     1.0000 0.62924  0.11326  0.31257  Biso   1.000  Ne
  Ne59     1.0000 0.72203  0.55928  0.12360  Biso   1.000  Ne
  He59     1.0000 0.68818  0.55950  0.11726  Biso   1.000  He
  He60     1.0000 0.68322  0.57856  0.09208  Biso   1.000  He
  Ne60     1.0000 0.65066  0.58931  0.09085  Biso   1.000  Ne
  Ne61     1.0000 0.97278  0.45821  0.53453  Biso   1.000  Ne
  He61     1.0000 0.94332  0.44781  0.54132  Biso   1.000  He
  He62     1.0000 0.93559  0.41638  0.55327  Biso   1.000  He
  Ne62     1.0000 0.90370  0.41289  0.55833  Biso   1.000  Ne
  Ne63     1.0000 0.29608  0.54187  0.86120  Biso   1.000  Ne
  He63     1.0000 0.27022  0.54272  0.84398  Biso   1.000  He
  He64     1.0000 0.27648  0.55423  0.81223  Biso   1.000  He
  Ne64     1.0000 0.25061  0.54833  0.79311  Biso   1.000  Ne
  Ne65     1.0000 0.92681  0.88428  0.85241  Biso   1.000  Ne
  He65     1.0000 0.90886  0.86890  0.87302  Biso   1.000  He
  He66     1.0000 0.87825  0.88276  0.87409  Biso   1.000  He
  Ne66     1.0000 0.85701  0.87035  0.89566  Biso   1.000  Ne
  Ne67     1.0000 0.41208  0.56595  0.88360  Biso   1.000  Ne
  He67     1.0000 0.39195  0.54885  0.86360  Biso   1.000  He
  He68     1.0000 0.38596  0.56285  0.83437  Biso   1.000  He
  Ne68     1.0000 0.36442  0.54415  0.81377  Biso   1.000  Ne
  Ne69     1.0000 0.32552  0.37284  0.75216  Biso   1.000  Ne
  He69     1.0000 0.31057  0.36111  0.77930  Biso   1.000  He
  He70     1.0000 0.31780  0.37933  0.80852  Biso   1.000  He
  Ne70     1.0000 0.30185  0.36487  0.83543  Biso   1.000  Ne
  Ne71     1.0000 0.13223  0.64978  0.59076  Biso   1.000  Ne
  He71     1.0000 0.14091  0.68182  0.59715  Biso   1.000  He
  He72     1.0000 0.17115  0.68893  0.58847  Biso   1.000  He
  Ne72     1.0000 0.18069  0.71652  0.59951  Biso   1.000  Ne
  Ne73     1.0000 0.08487  0.70021  0.64930  Biso   1.000  Ne
  He73     1.0000 0.10427  0.70230  0.67894  Biso   1.000  He
  He74     1.0000 0.08628  0.70229  0.70797  Biso   1.000  He
  Ne74     1.0000 0.07818  0.72975  0.72052  Biso   1.000  Ne
  Ne75     1.0000 0.06967  0.45772  0.57426  Biso   1.000  Ne
  He75     1.0000 0.06783  0.43016  0.55378  Biso   1.000  He
  He76     1.0000 0.05607  0.43636  0.52202  Biso   1.000  He
  Ne76     1.0000 0.05320  0.40681  0.50495  Biso   1.000  Ne
  Ne77     1.0000 0.59500  0.76040  0.43013  Biso   1.000  Ne
  He77     1.0000 0.59139  0.78307  0.40731  Biso   1.000  He
  He78     1.0000 0.57654  0.77167  0.38002  Biso   1.000  He
  Ne78     1.0000 0.57528  0.79527  0.35659  Biso   1.000  Ne
  Ne79     1.0000 0.06799  0.06962  0.18106  Biso   1.000  Ne
  He79     1.0000 0.07715  0.09490  0.15991  Biso   1.000  He
  He80     1.0000 0.06978  0.12498  0.17235  Biso   1.000  He
  Ne80     1.0000 0.07932  0.15080  0.15471  Biso   1.000  Ne
  Ne81     1.0000 0.53751  0.89419  0.56471  Biso   1.000  Ne
  He81     1.0000 0.56879  0.88729  0.57241  Biso   1.000  He
  He82     1.0000 0.58875  0.91361  0.57290  Biso   1.000  He
  Ne82     1.0000 0.61978  0.90806  0.57851  Biso   1.000  Ne
  Ne83     1.0000 0.96827  0.92419  0.97746  Biso   1.000  Ne
  He83     1.0000 0.99475  0.90909  0.97253  Biso   1.000  He
  He84     1.0000 0.00935  0.92059  0.94652  Biso   1.000  He
  Ne84     1.0000 0.03556  0.90525  0.93772  Biso   1.000  Ne
  Ne85     1.0000 0.55613  0.00856  0.54266  Biso   1.000  Ne
  He85     1.0000 0.57490  0.01042  0.51678  Biso   1.000  He
  He86     1.0000 0.55683  0.00736  0.49085  Biso   1.000  He
  Ne86     1.0000 0.57609  0.00553  0.46450  Biso   1.000  Ne
  Ne87     1.0000 0.38951  0.33155  0.83439  Biso   1.000  Ne
  He87     1.0000 0.40140  0.31405  0.86027  Biso   1.000  He
  He88     1.0000 0.38157  0.31546  0.88638  Biso   1.000  He
  Ne88     1.0000 0.39242  0.30064  0.91315  Biso   1.000  Ne
  Ne89     1.0000 0.92932  0.03183  0.99974  Biso   1.000  Ne
  He89     1.0000 0.91611  0.02132  0.97150  Biso   1.000  He
  He90     1.0000 0.90775  0.04601  0.95108  Biso   1.000  He
  Ne90     1.0000 0.89624  0.03182  0.92200  Biso   1.000  Ne
  Ne91     1.0000 0.09795  0.14173  0.83518  Biso   1.000  Ne
  He91     1.0000 0.10106  0.11107  0.84444  Biso   1.000  He
  He92     1.0000 0.07215  0.09215  0.84446  Biso   1.000  He
  Ne92     1.0000 0.07829  0.05840  0.85068  Biso   1.000  Ne
  Ne93     1.0000 0.90839  0.58927  0.61099  Biso   1.000  Ne
  He93     1.0000 0.90804  0.61869  0.62918  Biso   1.000  He
  He94     1.0000 0.92403  0.64283  0.61477  Biso   1.000  He
  Ne94     1.0000 0.92765  0.66963  0.63433  Biso   1.000  Ne
  Ne95     1.0000 0.99383  0.42846  0.43418  Biso   1.000  Ne
  He95     1.0000 0.97376  0.40212  0.44535  Biso   1.000  He
  He96     1.0000 0.94069  0.40309  0.43329  Biso   1.000  He
  Ne96     1.0000 0.91949  0.38402  0.44818  Biso   1.000  Ne
  Ne97     1.0000 0.38006  0.24403  0.71845  Biso   1.000  Ne
  He97     1.0000 0.39665  0.21519  0.70721  Biso   1.000  He
  He98     1.0000 0.41726  0.22162  0.68193  Biso   1.000  He
  Ne98     1.0000 0.42695  0.19344  0.66756  Biso   1.000  Ne
  Ne99     1.0000 0.57685  0.38772  0.80828  Biso   1.000  Ne
  He99     1.0000 0.59232  0.40245  0.83213  Biso   1.000  He
  He100    1.0000 0.57730  0.39758  0.86329  Biso   1.000  He
  Ne100    1.0000 0.59326  0.40743  0.88863  Biso   1.000  Ne
  Ne101    1.0000 0.10548  0.43412  0.44189  Biso   1.000  Ne
  He101    1.0000 0.13188  0.41453  0.44167  Biso   1.000  He
  He102    1.0000 0.14198  0.40858  0.41078  Biso   1.000  He
  Ne102    1.0000 0.16847  0.38712  0.40585  Biso   1.000  Ne
  Ne103    1.0000 0.32990  0.02954  0.38373  Biso   1.000  Ne
  He103    1.0000 0.36199  0.03570  0.38409  Biso   1.000  He
  He104    1.0000 0.37585  0.03602  0.41731  Biso   1.000  He
  Ne104    1.0000 0.39999  0.05699  0.42305  Biso   1.000  Ne
  Ne105    1.0000 0.37620  0.91147  0.58248  Biso   1.000  Ne
  He105    1.0000 0.39457  0.89847  0.60840  Biso   1.000  He
  He106    1.0000 0.42001  0.87907  0.59692  Biso   1.000  He
  Ne106    1.0000 0.43667  0.86754  0.61986  Biso   1.000  Ne
  Ne107    1.0000 0.58721  0.13844  0.64589  Biso   1.000  Ne
  He107    1.0000 0.58196  0.12444  0.61662  Biso   1.000  He
  He108    1.0000 0.58746  0.09290  0.61677  Biso   1.000  He
  Ne108    1.0000 0.58475  0.07756  0.58476  Biso   1.000  Ne
  Ne109    1.0000 0.47524  0.38188  0.97971  Biso   1.000  Ne
  He109    1.0000 0.45251  0.39293  0.96083  Biso   1.000  He
  He110    1.0000 0.45900  0.38286  0.92838  Biso   1.000  He
  Ne110    1.0000 0.43623  0.39357  0.90769  Biso   1.000  Ne
  Ne111    1.0000 0.93927  0.84204  0.10436  Biso   1.000  Ne
  He111    1.0000 0.93264  0.81615  0.12494  Biso   1.000  He
  He112    1.0000 0.90761  0.79718  0.11427  Biso   1.000  He
  Ne112    1.0000 0.89739  0.77155  0.13453  Biso   1.000  Ne
  Ne113    1.0000 0.08698  0.32335  0.65503  Biso   1.000  Ne
  He113    1.0000 0.09633  0.30019  0.67771  Biso   1.000  He
  He114    1.0000 0.12727  0.30868  0.68908  Biso   1.000  He
  Ne114    1.0000 0.13885  0.29130  0.71292  Biso   1.000  Ne
  Ne115    1.0000 0.77772  0.55284  0.58577  Biso   1.000  Ne
  He115    1.0000 0.79546  0.56030  0.60968  Biso   1.000  He
  He116    1.0000 0.79885  0.59434  0.61442  Biso   1.000  He
  Ne116    1.0000 0.81806  0.60219  0.64093  Biso   1.000  Ne
  Ne117    1.0000 0.41488  0.12442  0.40393  Biso   1.000  Ne
  He117    1.0000 0.39959  0.14856  0.38949  Biso   1.000  He
  He118    1.0000 0.41055  0.17731  0.40214  Biso   1.000  He
  Ne118    1.0000 0.40091  0.20395  0.38426  Biso   1.000  Ne
  Ne119    1.0000 0.67927  0.29407  0.93024  Biso   1.000  Ne
  He119    1.0000 0.65065  0.30577  0.93877  Biso   1.000  He
  He120    1.0000 0.64840  0.34176  0.93642  Biso   1.000  He
  Ne120    1.0000 0.61631  0.35264  0.94249  Biso   1.000  Ne
  Ne121    1.0000 0.10812  0.54737  0.35658  Biso   1.000  Ne
  He121    1.0000 0.12659  0.57161  0.36548  Biso   1.000  He
  He122    1.0000 0.15856  0.56468  0.36203  Biso   1.000  He
  Ne122    1.0000 0.17961  0.59165  0.37139  Biso   1.000  Ne
  Ne123    1.0000 0.25085  0.41852  0.62336  Biso   1.000  Ne
  He123    1.0000 0.22501  0.39595  0.62710  Biso   1.000  He
  He124    1.0000 0.20077  0.39825  0.60609  Biso   1.000  He
  Ne124    1.0000 0.17913  0.37417  0.61478  Biso   1.000  Ne
  Ne125    1.0000 0.01002  0.03275  0.94512  Biso   1.000  Ne
  He125    1.0000 0.04314  0.04657  0.94964  Biso   1.000  He
  He126    1.0000 0.05449  0.03427  0.97688  Biso   1.000  He
  Ne126    1.0000 0.08518  0.04127  0.98460  Biso   1.000  Ne
  Ne127    1.0000 0.54572  0.55908  0.03973  Biso   1.000  Ne
  He127    1.0000 0.55536  0.53446  0.05773  Biso   1.000  He
  He128    1.0000 0.57846  0.54307  0.07796  Biso   1.000  He
  Ne128    1.0000 0.59223  0.51767  0.09457  Biso   1.000  Ne
  Ne129    1.0000 0.80474  0.38974  0.60189  Biso   1.000  Ne
  He129    1.0000 0.79116  0.38083  0.63176  Biso   1.000  He
  He130    1.0000 0.76044  0.39041  0.63843  Biso   1.000  He
  Ne130    1.0000 0.75104  0.38437  0.67025  Biso   1.000  Ne
  Ne131    1.0000 0.42666  0.85696  0.43795  Biso   1.000  Ne
  He131    1.0000 0.44874  0.86438  0.46077  Biso   1.000  He
  He132    1.0000 0.44979  0.89666  0.46582  Biso   1.000  He
  Ne132    1.0000 0.47084  0.90660  0.49127  Biso   1.000  Ne
  Ne133    1.0000 0.87266  0.28058  0.60384  Biso   1.000  Ne
  He133    1.0000 0.88286  0.30958  0.61003  Biso   1.000  He
  He134    1.0000 0.91538  0.31031  0.61522  Biso   1.000  He
  Ne134    1.0000 0.92789  0.34239  0.60808  Biso   1.000  Ne
  Ne135    1.0000 0.69335  0.87283  0.61725  Biso   1.000  Ne
  He135    1.0000 0.71831  0.88569  0.60236  Biso   1.000  He
  He136    1.0000 0.73669  0.86347  0.58676  Biso   1.000  He
  Ne136    1.0000 0.76430  0.87893  0.57345  Biso   1.000  Ne
  Ne137    1.0000 0.69111  0.84810  0.42973  Biso   1.000  Ne
  He137    1.0000 0.69353  0.86425  0.40158  Biso   1.000  He
  He138    1.0000 0.66361  0.86863  0.38819  Biso   1.000  He
  Ne138    1.0000 0.66465  0.88644  0.36149  Biso   1.000  Ne
  Ne139    1.0000 0.36933  0.05769  0.57937  Biso   1.000  Ne
  He139    1.0000 0.38413  0.08490  0.57753  Biso   1.000  He
  He140    1.0000 0.41627  0.08160  0.58273  Biso   1.000  He
  Ne140    1.0000 0.43113  0.11224  0.57956  Biso   1.000  Ne
  Ne141    1.0000 0.41680  0.57222  0.06424  Biso   1.000  Ne
  He141    1.0000 0.42112  0.55710  0.09387  Biso   1.000  He
  He142    1.0000 0.44945  0.53849  0.09272  Biso   1.000  He
  Ne142    1.0000 0.45362  0.51892  0.12016  Biso   1.000  Ne
  Ne143    1.0000 0.39743  0.02853  0.28757  Biso   1.000  Ne
  He143    1.0000 0.36839  0.02391  0.27183  Biso   1.000  He
  He144    1.0000 0.34174  0.04237  0.28517  Biso   1.000  He
  Ne144    1.0000 0.31185  0.03299  0.27779  Biso   1.000  Ne
  Ne145    1.0000 0.16238  0.84451  0.22922  Biso   1.000  Ne
  He145    1.0000 0.14268  0.87112  0.22743  Biso   1.000  He
  He146    1.0000 0.11402  0.86444  0.21103  Biso   1.000  He
  Ne146    1.0000 0.09698  0.89074  0.20172  Biso   1.000  Ne
  Ne147    1.0000 0.17288  0.63996  0.30863  Biso   1.000  Ne
  He147    1.0000 0.16087  0.66180  0.33123  Biso   1.000  He
  He148    1.0000 0.13083  0.66432  0.32632  Biso   1.000  He
  Ne148    1.0000 0.11206  0.68480  0.34592  Biso   1.000  Ne
  Ne149    1.0000 0.89175  0.65814  0.37162  Biso   1.000  Ne
  He149    1.0000 0.91334  0.68237  0.36971  Biso   1.000  He
  He150    1.0000 0.90814  0.70210  0.34502  Biso   1.000  He
  Ne150    1.0000 0.93398  0.72361  0.34533  Biso   1.000  Ne
  Ne151    1.0000 0.10237  0.70379  0.41997  Biso   1.000  Ne
  He151    1.0000 0.10059  0.67329  0.43404  Biso   1.000  He
  He152    1.0000 0.08390  0.65412  0.41588  Biso   1.000  He
  Ne152    1.0000 0.08013  0.62090  0.42647  Biso   1.000  Ne
  Ne153    1.0000 0.87138  0.16832  0.65617  Biso   1.000  Ne
  He153    1.0000 0.88796  0.19705  0.65694  Biso   1.000  He
  He154    1.0000 0.92124  0.19662  0.65977  Biso   1.000  He
  Ne154    1.0000 0.93380  0.22627  0.66096  Biso   1.000  Ne
  Ne155    1.0000 0.06721  0.37091  0.39737  Biso   1.000  Ne
  He155    1.0000 0.08419  0.35552  0.41941  Biso   1.000  He
  He156    1.0000 0.10026  0.33178  0.40562  Biso   1.000  He
  Ne156    1.0000 0.12562  0.32029  0.42618  Biso   1.000  Ne
  Ne157    1.0000 0.36585  0.37391  0.94378  Biso   1.000  Ne
  He157    1.0000 0.33983  0.38805  0.92794  Biso   1.000  He
  He158    1.0000 0.31304  0.37206  0.92876  Biso   1.000  He
  Ne158    1.0000 0.28766  0.38710  0.91846  Biso   1.000  Ne
  Ne159    1.0000 0.89632  0.56369  0.41983  Biso   1.000  Ne
  He159    1.0000 0.86673  0.56748  0.42846  Biso   1.000  He
  He160    1.0000 0.84361  0.56248  0.40521  Biso   1.000  He
  Ne160    1.0000 0.81232  0.56747  0.41668  Biso   1.000  Ne
