data_image0
_cell_length_a       46.823
_cell_length_b       47.0212
_cell_length_c       46.6087
_cell_angle_alpha    90
_cell_angle_beta     90
_cell_angle_gamma    90

_symmetry_space_group_name_H-M    "P 1"
_symmetry_int_tables_number       1

loop_
  _symmetry_equiv_pos_as_xyz
  'x, y, z'

loop_
  _atom_site_label
  _atom_site_occupancy
  _atom_site_fract_x
  _atom_site_fract_y
  _atom_site_fract_z
  _atom_site_thermal_displace_type
  _atom_site_B_iso_or_equiv
  _atom_site_type_symbol
  Ne1      1.0000 0.40461  0.91333  0.31512  Biso   1.000  Ne
  He1      1.0000 0.41050  0.90121  0.34746  Biso   1.000  He
  He2      1.0000 0.38488  0.89291  0.36508  Biso   1.000  He
  Ne2      1.0000 0.37584  0.91308  0.39041  Biso   1.000  Ne
  Ne3      1.0000 0.93373  0.55172  0.60095  Biso   1.000  Ne
  He3      1.0000 0.90470  0.53957  0.59749  Biso   1.000  He
  He4      1.0000 0.87993  0.56229  0.58435  Biso   1.000  He
  Ne4      1.0000 0.84846  0.55391  0.58191  Biso   1.000  Ne
  Ne5      1.0000 0.45059  0.81807  0.39437  Biso   1.000  Ne
  He5      1.0000 0.42142  0.82841  0.40480  Biso   1.000  He
  He6      1.0000 0.40368  0.80513  0.41222  Biso   1.000  He
  Ne6      1.0000 0.37532  0.81652  0.42251  Biso   1.000  Ne
  Ne7      1.0000 0.98403  0.99190  0.91382  Biso   1.000  Ne
  He7      1.0000 0.98281  0.95748  0.91650  Biso   1.000  He
  He8      1.0000 0.99147  0.94526  0.94689  Biso   1.000  He
  Ne8      1.0000 0.98952  0.91255  0.95027  Biso   1.000  Ne
  Ne9      1.0000 0.10444  0.00276  0.95500  Biso   1.000  Ne
  He9      1.0000 0.10578  0.98397  0.98170  Biso   1.000  He
  He10     1.0000 0.09304  0.95414  0.97693  Biso   1.000  He
  Ne10     1.0000 0.09344  0.93636  0.00359  Biso   1.000  Ne
  Ne11     1.0000 0.47970  0.07725  0.41927  Biso   1.000  Ne
  He11     1.0000 0.46674  0.07446  0.38921  Biso   1.000  He
  He12     1.0000 0.45740  0.10106  0.37211  Biso   1.000  He
  Ne12     1.0000 0.43993  0.09563  0.34511  Biso   1.000  Ne
  Ne13     1.0000 0.14866  0.57737  0.62369  Biso   1.000  Ne
  He13     1.0000 0.13424  0.55592  0.60086  Biso   1.000  He
  He14     1.0000 0.10286  0.56137  0.59522  Biso   1.000  He
  Ne14     1.0000 0.09041  0.54016  0.57547  Biso   1.000  Ne
  Ne15     1.0000 0.44691  0.88961  0.64151  Biso   1.000  Ne
  He15     1.0000 0.45148  0.85830  0.65268  Biso   1.000  He
  He16     1.0000 0.42324  0.84010  0.65398  Biso   1.000  He
  Ne16     1.0000 0.42270  0.80657  0.66415  Biso   1.000  Ne
  Ne17     1.0000 0.11609  0.31848  0.39029  Biso   1.000  Ne
  He17     1.0000 0.13801  0.32294  0.41377  Biso   1.000  He
  He18     1.0000 0.16248  0.33854  0.40635  Biso   1.000  He
  Ne18     1.0000 0.18766  0.33355  0.42654  Biso   1.000  Ne
  Ne19     1.0000 0.35964  0.60614  0.09568  Biso   1.000  Ne
  He19     1.0000 0.32810  0.60182  0.10458  Biso   1.000  He
  He20     1.0000 0.32305  0.61959  0.13079  Biso   1.000  He
  Ne20     1.0000 0.29315  0.61509  0.14173  Biso   1.000  Ne
  Ne21     1.0000 0.39815  0.58482  0.16342  Biso   1.000  Ne
  He21     1.0000 0.40306  0.58660  0.19542  Biso   1.000  He
  He22     1.0000 0.43216  0.57681  0.20415  Biso   1.000  He
  Ne22     1.0000 0.43861  0.57602  0.23909  Biso   1.000  Ne
  Ne23     1.0000 0.49547  0.42625  0.02953  Biso   1.000  Ne
  He23     1.0000 0.48721  0.42762  0.06048  Biso   1.000  He
  He24     1.0000 0.50889  0.43950  0.07923  Biso   1.000  He
  Ne24     1.0000 0.49701  0.44691  0.10927  Biso   1.000  Ne
  Ne25     1.0000 0.90679  0.05823  0.16446  Biso   1.000  Ne
  He25     1.0000 0.91314  0.08929  0.16617  Biso   1.000  He
  He26     1.0000 0.88895  0.10950  0.15412  Biso   1.000  He
  Ne26     1.0000 0.89343  0.14510  0.15255  Biso   1.000  Ne
  Ne27     1.0000 0.60210  0.64066  0.14311  Biso   1.000  Ne
  He27     1.0000 0.60729  0.63671  0.11111  Biso   1.000  He
  He28     1.0000 0.63571  0.62157  0.10082  Biso   1.000  He
  Ne28     1.0000 0.63994  0.62693  0.06873  Biso   1.000  Ne
  Ne29     1.0000 0.67897  0.91768  0.67005  Biso   1.000  Ne
  He29     1.0000 0.66290  0.92296  0.69901  Biso   1.000  He
  He30     1.0000 0.68464  0.91764  0.72571  Biso   1.000  He
  Ne30     1.0000 0.67107  0.91973  0.75574  Biso   1.000  Ne
  Ne31     1.0000 0.06949  0.39350  0.53319  Biso   1.000  Ne
  He31     1.0000 0.08179  0.42238  0.54451  Biso   1.000  He
  He32     1.0000 0.09459  0.41880  0.57702  Biso   1.000  He
  Ne32     1.0000 0.07715  0.42374  0.60191  Biso   1.000  Ne
  Ne33     1.0000 0.62430  0.53716  0.94467  Biso   1.000  Ne
  He33     1.0000 0.61759  0.56772  0.94892  Biso   1.000  He
  He34     1.0000 0.59969  0.58281  0.92581  Biso   1.000  He
  Ne34     1.0000 0.59989  0.61326  0.93060  Biso   1.000  Ne
  Ne35     1.0000 0.85051  0.15691  0.90832  Biso   1.000  Ne
  He35     1.0000 0.82492  0.14210  0.92202  Biso   1.000  He
  He36     1.0000 0.81782  0.11459  0.90792  Biso   1.000  He
  Ne36     1.0000 0.79996  0.09455  0.92830  Biso   1.000  Ne
  Ne37     1.0000 0.91467  0.39608  0.56359  Biso   1.000  Ne
  He37     1.0000 0.94637  0.40331  0.56166  Biso   1.000  He
  He38     1.0000 0.96113  0.40267  0.53153  Biso   1.000  He
  Ne38     1.0000 0.99249  0.40531  0.53086  Biso   1.000  Ne
  Ne39     1.0000 0.55013  0.93091  0.45400  Biso   1.000  Ne
  He39     1.0000 0.51978  0.94270  0.45081  Biso   1.000  He
  He40     1.0000 0.50636  0.94205  0.42180  Biso   1.000  He
  Ne40     1.0000 0.47605  0.95700  0.41739  Biso   1.000  Ne
  Ne41     1.0000 0.96385  0.57780  0.30559  Biso   1.000  Ne
  He41     1.0000 0.93082  0.58066  0.30517  Biso   1.000  He
  He42     1.0000 0.91424  0.57231  0.27774  Biso   1.000  He
  Ne42     1.0000 0.87967  0.58094  0.28118  Biso   1.000  Ne
  Ne43     1.0000 0.85888  0.89637  0.08497  Biso   1.000  Ne
  He43     1.0000 0.82479  0.90325  0.07617  Biso   1.000  He
  He44     1.0000 0.80326  0.88053  0.08745  Biso   1.000  He
  Ne44     1.0000 0.77342  0.88199  0.07569  Biso   1.000  Ne
  Ne45     1.0000 0.44052  0.60122  0.93181  Biso   1.000  Ne
  He45     1.0000 0.42399  0.58064  0.91572  Biso   1.000  He
  He46     1.0000 0.39283  0.58826  0.91547  Biso   1.000  He
  Ne46     1.0000 0.37351  0.56762  0.89958  Biso   1.000  Ne
  Ne47     1.0000 0.38106  0.41929  0.14368  Biso   1.000  Ne
  He47     1.0000 0.34918  0.42139  0.14801  Biso   1.000  He
  He48     1.0000 0.33324  0.42628  0.12080  Biso   1.000  He
  Ne48     1.0000 0.29946  0.42610  0.12382  Biso   1.000  Ne
  Ne49     1.0000 0.10445  0.88585  0.85143  Biso   1.000  Ne
  He49     1.0000 0.09360  0.89719  0.87995  Biso   1.000  He
  He50     1.0000 0.09404  0.87493  0.90565  Biso   1.000  He
  Ne50     1.0000 0.08753  0.88655  0.93465  Biso   1.000  Ne
  Ne51     1.0000 0.93822  0.83818  0.82876  Biso   1.000  Ne
  He51     1.0000 0.93516  0.84736  0.79571  Biso   1.000  He
  He52     1.0000 0.91259  0.83084  0.77845  Biso   1.000  He
  Ne52     1.0000 0.90861  0.83659  0.74810  Biso   1.000  Ne
  Ne53     1.0000 0.66755  0.84536  0.42225  Biso   1.000  Ne
  He53     1.0000 0.64595  0.86704  0.43652  Biso   1.000  He
  He54     1.0000 0.65136  0.89685  0.42328  Biso   1.000  He
  Ne54     1.0000 0.63223  0.91871  0.43780  Biso   1.000  Ne
  Ne55     1.0000 0.30821  0.06765  0.34345  Biso   1.000  Ne
  He55     1.0000 0.27631  0.05613  0.35265  Biso   1.000  He
  He56     1.0000 0.25711  0.04667  0.32776  Biso   1.000  He
  Ne56     1.0000 0.23547  0.02237  0.33768  Biso   1.000  Ne
  Ne57     1.0000 0.87325  0.91434  0.86413  Biso   1.000  Ne
  He57     1.0000 0.90110  0.89836  0.87496  Biso   1.000  He
  He58     1.0000 0.89260  0.88538  0.90468  Biso   1.000  He
  Ne58     1.0000 0.91702  0.86930  0.91959  Biso   1.000  Ne
  Ne59     1.0000 0.62252  0.80778  0.60210  Biso   1.000  Ne
  He59     1.0000 0.60742  0.83523  0.61708  Biso   1.000  He
  He60     1.0000 0.62073  0.84296  0.64489  Biso   1.000  He
  Ne60     1.0000 0.61385  0.87274  0.65751  Biso   1.000  Ne
  Ne61     1.0000 0.09927  0.63174  0.40934  Biso   1.000  Ne
  He61     1.0000 0.11261  0.60213  0.40358  Biso   1.000  He
  He62     1.0000 0.13737  0.59487  0.42621  Biso   1.000  He
  Ne62     1.0000 0.15453  0.57027  0.41835  Biso   1.000  Ne
  Ne63     1.0000 0.01179  0.78975  0.64856  Biso   1.000  Ne
  He63     1.0000 0.00636  0.81911  0.66061  Biso   1.000  He
  He64     1.0000 0.00911  0.82142  0.69247  Biso   1.000  He
  Ne64     1.0000 0.99798  0.85087  0.70196  Biso   1.000  Ne
  Ne65     1.0000 0.75725  0.29587  0.10370  Biso   1.000  Ne
  He65     1.0000 0.73580  0.32258  0.09735  Biso   1.000  He
  He66     1.0000 0.72149  0.33444  0.12530  Biso   1.000  He
  Ne66     1.0000 0.69936  0.35665  0.12126  Biso   1.000  Ne
  Ne67     1.0000 0.60543  0.99151  0.45761  Biso   1.000  Ne
  He67     1.0000 0.60511  0.01982  0.47249  Biso   1.000  He
  He68     1.0000 0.57812  0.03586  0.46409  Biso   1.000  He
  Ne68     1.0000 0.57757  0.06614  0.47598  Biso   1.000  Ne
  Ne69     1.0000 0.67894  0.39479  0.91338  Biso   1.000  Ne
  He69     1.0000 0.64888  0.38339  0.92136  Biso   1.000  He
  He70     1.0000 0.64494  0.34922  0.92202  Biso   1.000  He
  Ne70     1.0000 0.61418  0.33909  0.92535  Biso   1.000  Ne
  Ne71     1.0000 0.14516  0.06443  0.06072  Biso   1.000  Ne
  He71     1.0000 0.12128  0.05479  0.07931  Biso   1.000  He
  He72     1.0000 0.09130  0.05575  0.06269  Biso   1.000  He
  Ne72     1.0000 0.06679  0.04158  0.07591  Biso   1.000  Ne
  Ne73     1.0000 0.46775  0.38052  0.94576  Biso   1.000  Ne
  He73     1.0000 0.43708  0.39059  0.93316  Biso   1.000  He
  He74     1.0000 0.41434  0.40887  0.95103  Biso   1.000  He
  Ne74     1.0000 0.38518  0.41013  0.93926  Biso   1.000  Ne
  Ne75     1.0000 0.44237  0.13380  0.61402  Biso   1.000  Ne
  He75     1.0000 0.43449  0.16513  0.59853  Biso   1.000  He
  He76     1.0000 0.42965  0.16320  0.56874  Biso   1.000  He
  Ne76     1.0000 0.41431  0.18916  0.55630  Biso   1.000  Ne
  Ne77     1.0000 0.62808  0.33082  0.83753  Biso   1.000  Ne
  He77     1.0000 0.62080  0.35814  0.85321  Biso   1.000  He
  He78     1.0000 0.59997  0.37460  0.83416  Biso   1.000  He
  Ne78     1.0000 0.59640  0.40631  0.84528  Biso   1.000  Ne
  Ne79     1.0000 0.38709  0.34934  0.08681  Biso   1.000  Ne
  He79     1.0000 0.40173  0.32318  0.09846  Biso   1.000  He
  He80     1.0000 0.41995  0.30532  0.07488  Biso   1.000  He
  Ne80     1.0000 0.43832  0.28120  0.08702  Biso   1.000  Ne
  Ne81     1.0000 0.67406  0.42401  0.08006  Biso   1.000  Ne
  He81     1.0000 0.64270  0.42571  0.07411  Biso   1.000  He
  He82     1.0000 0.62383  0.43422  0.09811  Biso   1.000  He
  Ne82     1.0000 0.59056  0.42834  0.09285  Biso   1.000  Ne
  Ne83     1.0000 0.58501  0.07354  0.59586  Biso   1.000  Ne
  He83     1.0000 0.56229  0.04790  0.59506  Biso   1.000  He
  He84     1.0000 0.56920  0.02612  0.57113  Biso   1.000  He
  Ne84     1.0000 0.54588  0.99979  0.57481  Biso   1.000  Ne
  Ne85     1.0000 0.09078  0.44431  0.42747  Biso   1.000  Ne
  He85     1.0000 0.08023  0.42980  0.40031  Biso   1.000  He
  He86     1.0000 0.10231  0.41485  0.38308  Biso   1.000  He
  Ne86     1.0000 0.09131  0.40047  0.35411  Biso   1.000  Ne
  Ne87     1.0000 0.56807  0.48245  0.92176  Biso   1.000  Ne
  He87     1.0000 0.53489  0.48330  0.91756  Biso   1.000  He
  He88     1.0000 0.51462  0.46123  0.93805  Biso   1.000  He
  Ne88     1.0000 0.49746  0.47492  0.96293  Biso   1.000  Ne
  Ne89     1.0000 0.65726  0.09047  0.57732  Biso   1.000  Ne
  He89     1.0000 0.69250  0.08781  0.57547  Biso   1.000  He
  He90     1.0000 0.70435  0.07676  0.60441  Biso   1.000  He
  Ne90     1.0000 0.74035  0.07627  0.60727  Biso   1.000  Ne
  Ne91     1.0000 0.10273  0.14946  0.09707  Biso   1.000  Ne
  He91     1.0000 0.12285  0.16712  0.07622  Biso   1.000  He
  He92     1.0000 0.14528  0.18420  0.09387  Biso   1.000  He
  Ne92     1.0000 0.16023  0.20370  0.07282  Biso   1.000  Ne
  Ne93     1.0000 0.90268  0.07024  0.86589  Biso   1.000  Ne
  He93     1.0000 0.91924  0.08139  0.89127  Biso   1.000  He
  He94     1.0000 0.93095  0.05836  0.91130  Biso   1.000  He
  Ne94     1.0000 0.94222  0.07023  0.94125  Biso   1.000  Ne
  Ne95     1.0000 0.87145  0.07289  0.09341  Biso   1.000  Ne
  He95     1.0000 0.89933  0.06381  0.07772  Biso   1.000  He
  He96     1.0000 0.92039  0.08597  0.06709  Biso   1.000  He
  Ne96     1.0000 0.94514  0.07553  0.04941  Biso   1.000  Ne
  Ne97     1.0000 0.91834  0.71543  0.64790  Biso   1.000  Ne
  He97     1.0000 0.92281  0.68860  0.62975  Biso   1.000  He
  He98     1.0000 0.95054  0.67079  0.63548  Biso   1.000  He
  Ne98     1.0000 0.95778  0.64614  0.61415  Biso   1.000  Ne
  Ne99     1.0000 0.80838  0.37982  0.23659  Biso   1.000  Ne
  He99     1.0000 0.81106  0.38614  0.27226  Biso   1.000  He
  He100    1.0000 0.78195  0.39529  0.28657  Biso   1.000  He
  Ne100    1.0000 0.78579  0.40115  0.32066  Biso   1.000  Ne
  Ne101    1.0000 0.65563  0.23849  0.12029  Biso   1.000  Ne
  He101    1.0000 0.68316  0.22265  0.10648  Biso   1.000  He
  He102    1.0000 0.68427  0.23033  0.07587  Biso   1.000  He
  Ne102    1.0000 0.71134  0.22016  0.05932  Biso   1.000  Ne
  Ne103    1.0000 0.68083  0.89306  0.58071  Biso   1.000  Ne
  He103    1.0000 0.68102  0.86086  0.58599  Biso   1.000  He
  He104    1.0000 0.70826  0.84682  0.59838  Biso   1.000  He
  Ne104    1.0000 0.70646  0.81234  0.60338  Biso   1.000  Ne
  Ne105    1.0000 0.17555  0.14468  0.91991  Biso   1.000  Ne
  He105    1.0000 0.15757  0.17184  0.91570  Biso   1.000  He
  He106    1.0000 0.12369  0.17117  0.92265  Biso   1.000  He
  Ne106    1.0000 0.10878  0.20397  0.91637  Biso   1.000  Ne
  Ne107    1.0000 0.08772  0.09208  0.90814  Biso   1.000  Ne
  He107    1.0000 0.09754  0.06840  0.88719  Biso   1.000  He
  He108    1.0000 0.10693  0.08059  0.85864  Biso   1.000  He
  Ne108    1.0000 0.12346  0.05956  0.83813  Biso   1.000  Ne
  Ne109    1.0000 0.92678  0.82271  0.12054  Biso   1.000  Ne
  He109    1.0000 0.91379  0.81295  0.09279  Biso   1.000  He
  He110    1.0000 0.91296  0.78042  0.08980  Biso   1.000  He
  Ne110    1.0000 0.90262  0.76645  0.06319  Biso   1.000  Ne
  Ne111    1.0000 0.60691  0.06060  0.38845  Biso   1.000  Ne
  He111    1.0000 0.63503  0.05274  0.40388  Biso   1.000  He
  He112    1.0000 0.65618  0.07845  0.40032  Biso   1.000  He
  Ne112    1.0000 0.68749  0.07582  0.41314  Biso   1.000  Ne
  Ne113    1.0000 0.10953  0.92550  0.12174  Biso   1.000  Ne
  He113    1.0000 0.12388  0.90038  0.10705  Biso   1.000  He
  He114    1.0000 0.15405  0.90752  0.09645  Biso   1.000  He
  Ne114    1.0000 0.16752  0.87881  0.08278  Biso   1.000  Ne
  Ne115    1.0000 0.82485  0.69553  0.94645  Biso   1.000  Ne
  He115    1.0000 0.80162  0.68129  0.92712  Biso   1.000  He
  He116    1.0000 0.78708  0.69954  0.90180  Biso   1.000  He
  Ne116    1.0000 0.76610  0.68197  0.88315  Biso   1.000  Ne
  Ne117    1.0000 0.44329  0.63279  0.09290  Biso   1.000  Ne
  He117    1.0000 0.44389  0.59999  0.09424  Biso   1.000  He
  He118    1.0000 0.43994  0.58478  0.06484  Biso   1.000  He
  Ne118    1.0000 0.44533  0.55289  0.06567  Biso   1.000  Ne
  Ne119    1.0000 0.99671  0.91004  0.06713  Biso   1.000  Ne
  He119    1.0000 0.98681  0.91922  0.09520  Biso   1.000  He
  He120    1.0000 0.97066  0.89334  0.10886  Biso   1.000  He
  Ne120    1.0000 0.95515  0.90545  0.13512  Biso   1.000  Ne
