data_image0
_cell_length_a       46.4927
_cell_length_b       46.5486
_cell_length_c       46.5716
_cell_angle_alpha    90
_cell_angle_beta     90
_cell_angle_gamma    90

_symmetry_space_group_name_H-M    "P 1"
_symmetry_int_tables_number       1

loop_
  _symmetry_equiv_pos_as_xyz
  'x, y, z'

loop_
  _atom_site_label
  _atom_site_occupancy
  _atom_site_fract_x
  _atom_site_fract_y
  _atom_site_fract_z
  _atom_site_thermal_displace_type
  _atom_site_B_iso_or_equiv
  _atom_site_type_symbol
  Ne1      1.0000 0.06527  0.25711  0.38437  Biso   1.000  Ne
  He1      1.0000 0.07183  0.28528  0.39950  Biso   1.000  He
  He2      1.0000 0.09069  0.28505  0.42721  Biso   1.000  He
  Ne2      1.0000 0.09861  0.31516  0.43603  Biso   1.000  Ne
  Ne3      1.0000 0.96507  0.43691  0.60290  Biso   1.000  Ne
  He3      1.0000 0.96619  0.42782  0.57269  Biso   1.000  He
  He4      1.0000 0.94477  0.44098  0.55055  Biso   1.000  He
  Ne4      1.0000 0.93957  0.42434  0.52158  Biso   1.000  Ne
  Ne5      1.0000 0.31083  0.58139  0.42645  Biso   1.000  Ne
  He5      1.0000 0.31823  0.55826  0.45005  Biso   1.000  He
  He6      1.0000 0.29042  0.55369  0.46761  Biso   1.000  He
  Ne6      1.0000 0.29227  0.52714  0.49004  Biso   1.000  Ne
  Ne7      1.0000 0.02824  0.65324  0.20003  Biso   1.000  Ne
  He7      1.0000 0.00155  0.63561  0.19549  Biso   1.000  He
  He8      1.0000 0.98752  0.64102  0.16557  Biso   1.000  He
  Ne8      1.0000 0.95923  0.62110  0.15950  Biso   1.000  Ne
  Ne9      1.0000 0.77555  0.09276  0.71098  Biso   1.000  Ne
  He9      1.0000 0.78628  0.06215  0.71577  Biso   1.000  He
  He10     1.0000 0.79603  0.04779  0.68788  Biso   1.000  He
  Ne10     1.0000 0.81749  0.02174  0.69066  Biso   1.000  Ne
  Ne11     1.0000 0.42594  0.30301  0.16296  Biso   1.000  Ne
  He11     1.0000 0.41797  0.30902  0.13209  Biso   1.000  He
  He12     1.0000 0.41484  0.28174  0.11523  Biso   1.000  He
  Ne12     1.0000 0.40678  0.28695  0.08307  Biso   1.000  Ne
  Ne13     1.0000 0.94533  0.55493  0.64335  Biso   1.000  Ne
  He13     1.0000 0.94691  0.55405  0.61253  Biso   1.000  He
  He14     1.0000 0.93640  0.52299  0.59943  Biso   1.000  He
  Ne14     1.0000 0.93264  0.51838  0.56597  Biso   1.000  Ne
  Ne15     1.0000 0.78864  0.61604  0.43154  Biso   1.000  Ne
  He15     1.0000 0.81270  0.59589  0.42685  Biso   1.000  He
  He16     1.0000 0.81435  0.58572  0.39577  Biso   1.000  He
  Ne16     1.0000 0.84339  0.56716  0.39010  Biso   1.000  Ne
  Ne17     1.0000 0.04084  0.52091  0.45669  Biso   1.000  Ne
  He17     1.0000 0.02610  0.49316  0.44362  Biso   1.000  He
  He18     1.0000 0.99360  0.48941  0.45128  Biso   1.000  He
  Ne18     1.0000 0.98113  0.45943  0.44093  Biso   1.000  Ne
  Ne19     1.0000 0.60295  0.42011  0.85019  Biso   1.000  Ne
  He19     1.0000 0.61422  0.41715  0.81764  Biso   1.000  He
  He20     1.0000 0.59191  0.42798  0.79443  Biso   1.000  He
  Ne20     1.0000 0.60372  0.42028  0.76307  Biso   1.000  Ne
  Ne21     1.0000 0.45931  0.92779  0.62650  Biso   1.000  Ne
  He21     1.0000 0.44626  0.90256  0.60765  Biso   1.000  He
  He22     1.0000 0.43320  0.87615  0.62577  Biso   1.000  He
  Ne22     1.0000 0.41906  0.84915  0.60616  Biso   1.000  Ne
  Ne23     1.0000 0.39212  0.92406  0.39111  Biso   1.000  Ne
  He23     1.0000 0.38410  0.92010  0.36029  Biso   1.000  He
  He24     1.0000 0.35184  0.91896  0.35365  Biso   1.000  He
  Ne24     1.0000 0.34504  0.91318  0.32188  Biso   1.000  Ne
  Ne25     1.0000 0.80428  0.59886  0.72183  Biso   1.000  Ne
  He25     1.0000 0.83548  0.60100  0.71125  Biso   1.000  He
  He26     1.0000 0.83992  0.58096  0.68772  Biso   1.000  He
  Ne26     1.0000 0.86801  0.58403  0.67990  Biso   1.000  Ne
  Ne27     1.0000 0.38190  0.86159  0.71513  Biso   1.000  Ne
  He27     1.0000 0.39171  0.88161  0.74018  Biso   1.000  He
  He28     1.0000 0.42143  0.89750  0.73644  Biso   1.000  He
  Ne28     1.0000 0.42650  0.91908  0.76297  Biso   1.000  Ne
  Ne29     1.0000 0.75948  0.86640  0.08083  Biso   1.000  Ne
  He29     1.0000 0.76832  0.85090  0.10691  Biso   1.000  He
  He30     1.0000 0.79802  0.84117  0.10629  Biso   1.000  He
  Ne30     1.0000 0.80722  0.81499  0.12827  Biso   1.000  Ne
  Ne31     1.0000 0.24044  0.85609  0.93828  Biso   1.000  Ne
  He31     1.0000 0.21196  0.86923  0.94788  Biso   1.000  He
  He32     1.0000 0.21434  0.90195  0.94477  Biso   1.000  He
  Ne32     1.0000 0.18558  0.91734  0.94729  Biso   1.000  Ne
  Ne33     1.0000 0.23530  0.60477  0.39961  Biso   1.000  Ne
  He33     1.0000 0.21665  0.58141  0.38416  Biso   1.000  He
  He34     1.0000 0.19464  0.59282  0.36121  Biso   1.000  He
  Ne34     1.0000 0.17552  0.57357  0.34596  Biso   1.000  Ne
  Ne35     1.0000 0.18330  0.78322  0.91724  Biso   1.000  Ne
  He35     1.0000 0.15320  0.77262  0.90561  Biso   1.000  He
  He36     1.0000 0.13056  0.76436  0.93038  Biso   1.000  He
  Ne36     1.0000 0.09990  0.75552  0.91643  Biso   1.000  Ne
  Ne37     1.0000 0.45064  0.09647  0.77124  Biso   1.000  Ne
  He37     1.0000 0.44833  0.07423  0.74629  Biso   1.000  He
  He38     1.0000 0.42692  0.08622  0.72460  Biso   1.000  He
  Ne38     1.0000 0.42405  0.06823  0.69832  Biso   1.000  Ne
  Ne39     1.0000 0.22324  0.90206  0.16262  Biso   1.000  Ne
  He39     1.0000 0.22638  0.89351  0.19463  Biso   1.000  He
  He40     1.0000 0.21055  0.91359  0.21342  Biso   1.000  He
  Ne40     1.0000 0.21893  0.91206  0.24578  Biso   1.000  Ne
  Ne41     1.0000 0.16888  0.37029  0.42606  Biso   1.000  Ne
  He41     1.0000 0.19723  0.38907  0.43310  Biso   1.000  He
  He42     1.0000 0.20931  0.40160  0.40757  Biso   1.000  He
  Ne42     1.0000 0.23955  0.41362  0.41300  Biso   1.000  Ne
  Ne43     1.0000 0.57756  0.90100  0.35898  Biso   1.000  Ne
  He43     1.0000 0.60112  0.88698  0.34173  Biso   1.000  He
  He44     1.0000 0.58696  0.87256  0.31467  Biso   1.000  He
  Ne44     1.0000 0.60764  0.85966  0.29183  Biso   1.000  Ne
  Ne45     1.0000 0.08312  0.62448  0.42968  Biso   1.000  Ne
  He45     1.0000 0.09764  0.61298  0.40226  Biso   1.000  He
  He46     1.0000 0.08108  0.58351  0.39121  Biso   1.000  He
  Ne46     1.0000 0.09260  0.56615  0.36637  Biso   1.000  Ne
  Ne47     1.0000 0.43629  0.86846  0.44840  Biso   1.000  Ne
  He47     1.0000 0.42464  0.85498  0.41903  Biso   1.000  He
  He48     1.0000 0.41103  0.82361  0.42268  Biso   1.000  He
  Ne48     1.0000 0.39994  0.81349  0.39204  Biso   1.000  Ne
  Ne49     1.0000 0.67587  0.56189  0.20083  Biso   1.000  Ne
  He49     1.0000 0.69483  0.57428  0.17741  Biso   1.000  He
  He50     1.0000 0.68495  0.56694  0.14611  Biso   1.000  He
  Ne50     1.0000 0.70769  0.57567  0.12444  Biso   1.000  Ne
  Ne51     1.0000 0.91902  0.10328  0.85977  Biso   1.000  Ne
  He51     1.0000 0.89077  0.08624  0.85611  Biso   1.000  He
  He52     1.0000 0.86500  0.10213  0.86781  Biso   1.000  He
  Ne52     1.0000 0.83596  0.08664  0.86246  Biso   1.000  Ne
  Ne53     1.0000 0.72525  0.34544  0.80417  Biso   1.000  Ne
  He53     1.0000 0.71635  0.37409  0.81754  Biso   1.000  He
  He54     1.0000 0.72460  0.37752  0.84862  Biso   1.000  He
  Ne54     1.0000 0.71292  0.40531  0.86338  Biso   1.000  Ne
  Ne55     1.0000 0.71909  0.12032  0.75616  Biso   1.000  Ne
  He55     1.0000 0.68707  0.12077  0.75932  Biso   1.000  He
  He56     1.0000 0.67661  0.12114  0.79012  Biso   1.000  He
  Ne56     1.0000 0.64429  0.11358  0.79129  Biso   1.000  Ne
  Ne57     1.0000 0.08117  0.78640  0.09517  Biso   1.000  Ne
  He57     1.0000 0.09366  0.81383  0.10200  Biso   1.000  He
  He58     1.0000 0.12638  0.81708  0.10852  Biso   1.000  He
  Ne58     1.0000 0.13452  0.84651  0.11945  Biso   1.000  Ne
  Ne59     1.0000 0.60576  0.07963  0.33022  Biso   1.000  Ne
  He59     1.0000 0.63302  0.06234  0.32480  Biso   1.000  He
  He60     1.0000 0.66401  0.07686  0.32409  Biso   1.000  He
  Ne60     1.0000 0.68817  0.05767  0.31504  Biso   1.000  Ne
  Ne61     1.0000 0.95018  0.95265  0.03018  Biso   1.000  Ne
  He61     1.0000 0.97735  0.94154  0.04543  Biso   1.000  He
  He62     1.0000 0.97094  0.92085  0.07229  Biso   1.000  He
  Ne62     1.0000 0.96553  0.93685  0.10153  Biso   1.000  Ne
  Ne63     1.0000 0.15407  0.35128  0.58787  Biso   1.000  Ne
  He63     1.0000 0.15382  0.37101  0.61587  Biso   1.000  He
  He64     1.0000 0.12402  0.38472  0.62661  Biso   1.000  He
  Ne64     1.0000 0.12276  0.40052  0.65555  Biso   1.000  Ne
  Ne65     1.0000 0.08006  0.02921  0.06530  Biso   1.000  Ne
  He65     1.0000 0.06312  0.99904  0.05273  Biso   1.000  He
  He66     1.0000 0.08571  0.97420  0.04175  Biso   1.000  He
  Ne66     1.0000 0.06467  0.94755  0.03102  Biso   1.000  Ne
  Ne67     1.0000 0.79289  0.30301  0.99870  Biso   1.000  Ne
  He67     1.0000 0.77984  0.32754  0.97879  Biso   1.000  He
  He68     1.0000 0.79773  0.33124  0.95032  Biso   1.000  He
  Ne68     1.0000 0.78811  0.36260  0.93552  Biso   1.000  Ne
  Ne69     1.0000 0.11459  0.54753  0.59026  Biso   1.000  Ne
  He69     1.0000 0.08605  0.55951  0.58206  Biso   1.000  He
  He70     1.0000 0.06285  0.53444  0.59266  Biso   1.000  He
  Ne70     1.0000 0.03020  0.54005  0.58293  Biso   1.000  Ne
  Ne71     1.0000 0.48221  0.39789  0.99801  Biso   1.000  Ne
  He71     1.0000 0.46866  0.41568  0.97505  Biso   1.000  He
  He72     1.0000 0.48366  0.44166  0.96616  Biso   1.000  He
  Ne72     1.0000 0.46440  0.45768  0.94623  Biso   1.000  Ne
  Ne73     1.0000 0.10704  0.81901  0.83324  Biso   1.000  Ne
  He73     1.0000 0.10809  0.81217  0.80319  Biso   1.000  He
  He74     1.0000 0.08128  0.81939  0.78682  Biso   1.000  He
  Ne74     1.0000 0.07868  0.80231  0.75650  Biso   1.000  Ne
  Ne75     1.0000 0.92502  0.57670  0.41791  Biso   1.000  Ne
  He75     1.0000 0.93301  0.55274  0.43804  Biso   1.000  He
  He76     1.0000 0.90803  0.54036  0.45393  Biso   1.000  He
  Ne76     1.0000 0.91385  0.52145  0.47948  Biso   1.000  Ne
  Ne77     1.0000 0.09736  0.25268  0.18202  Biso   1.000  Ne
  He77     1.0000 0.07521  0.24594  0.15608  Biso   1.000  He
  He78     1.0000 0.08704  0.24844  0.12420  Biso   1.000  He
  Ne78     1.0000 0.06648  0.24397  0.09831  Biso   1.000  Ne
  Ne79     1.0000 0.92608  0.40445  0.33148  Biso   1.000  Ne
  He79     1.0000 0.91751  0.38165  0.35249  Biso   1.000  He
  He80     1.0000 0.92083  0.35239  0.33809  Biso   1.000  He
  Ne80     1.0000 0.91133  0.32667  0.35592  Biso   1.000  Ne
  Ne81     1.0000 0.15860  0.64203  0.60607  Biso   1.000  Ne
  He81     1.0000 0.17374  0.61442  0.61108  Biso   1.000  He
  He82     1.0000 0.20545  0.62153  0.61693  Biso   1.000  He
  Ne82     1.0000 0.22714  0.59540  0.61809  Biso   1.000  Ne
  Ne83     1.0000 0.21303  0.08956  0.13710  Biso   1.000  Ne
  He83     1.0000 0.18140  0.07770  0.14799  Biso   1.000  He
  He84     1.0000 0.15464  0.07373  0.12594  Biso   1.000  He
  Ne84     1.0000 0.12778  0.06367  0.14463  Biso   1.000  Ne
  Ne85     1.0000 0.69753  0.11072  0.43149  Biso   1.000  Ne
  He85     1.0000 0.68786  0.07776  0.43077  Biso   1.000  He
  He86     1.0000 0.65695  0.07260  0.42883  Biso   1.000  He
  Ne86     1.0000 0.64022  0.06633  0.40036  Biso   1.000  Ne
  Ne87     1.0000 0.70958  0.32658  0.22282  Biso   1.000  Ne
  He87     1.0000 0.71440  0.35404  0.23790  Biso   1.000  He
  He88     1.0000 0.74580  0.35968  0.24493  Biso   1.000  He
  Ne88     1.0000 0.75336  0.38892  0.25833  Biso   1.000  Ne
  Ne89     1.0000 0.13537  0.83088  0.48180  Biso   1.000  Ne
  He89     1.0000 0.13815  0.80819  0.45760  Biso   1.000  He
  He90     1.0000 0.16948  0.79387  0.45913  Biso   1.000  He
  Ne90     1.0000 0.17285  0.76926  0.43504  Biso   1.000  Ne
  Ne91     1.0000 0.50871  0.43830  0.08920  Biso   1.000  Ne
  He91     1.0000 0.53428  0.42451  0.07880  Biso   1.000  He
  He92     1.0000 0.55832  0.42276  0.10125  Biso   1.000  He
  Ne92     1.0000 0.58150  0.40726  0.08788  Biso   1.000  Ne
  Ne93     1.0000 0.63416  0.63434  0.14965  Biso   1.000  Ne
  He93     1.0000 0.61794  0.60717  0.14455  Biso   1.000  He
  He94     1.0000 0.59799  0.59568  0.17041  Biso   1.000  He
  Ne94     1.0000 0.58106  0.56552  0.16651  Biso   1.000  Ne
  Ne95     1.0000 0.28680  0.82627  0.63553  Biso   1.000  Ne
  He95     1.0000 0.30714  0.84076  0.61727  Biso   1.000  He
  He96     1.0000 0.32978  0.86332  0.63025  Biso   1.000  He
  Ne96     1.0000 0.34767  0.87911  0.60911  Biso   1.000  Ne
  Ne97     1.0000 0.39456  0.34640  0.84507  Biso   1.000  Ne
  He97     1.0000 0.41108  0.35802  0.87223  Biso   1.000  He
  He98     1.0000 0.43917  0.38109  0.86641  Biso   1.000  He
  Ne98     1.0000 0.45478  0.39141  0.89426  Biso   1.000  Ne
  Ne99     1.0000 0.30453  0.39837  0.93212  Biso   1.000  Ne
  He99     1.0000 0.33559  0.41165  0.92882  Biso   1.000  He
  He100    1.0000 0.36066  0.39423  0.94302  Biso   1.000  He
  Ne100    1.0000 0.38745  0.41532  0.94464  Biso   1.000  Ne
  Ne101    1.0000 0.92902  0.63511  0.36177  Biso   1.000  Ne
  He101    1.0000 0.91522  0.65548  0.38550  Biso   1.000  He
  He102    1.0000 0.88509  0.64769  0.39159  Biso   1.000  He
  Ne102    1.0000 0.86985  0.66283  0.41766  Biso   1.000  Ne
  Ne103    1.0000 0.67662  0.57452  0.92126  Biso   1.000  Ne
  He103    1.0000 0.64752  0.58235  0.93538  Biso   1.000  He
  He104    1.0000 0.62223  0.56456  0.92272  Biso   1.000  He
  Ne104    1.0000 0.59352  0.57887  0.93330  Biso   1.000  Ne
  Ne105    1.0000 0.43920  0.26675  0.25672  Biso   1.000  Ne
  He105    1.0000 0.40769  0.26075  0.26145  Biso   1.000  He
  He106    1.0000 0.40380  0.23284  0.27949  Biso   1.000  He
  Ne106    1.0000 0.36998  0.22464  0.27918  Biso   1.000  Ne
  Ne107    1.0000 0.84135  0.14703  0.95370  Biso   1.000  Ne
  He107    1.0000 0.85726  0.16322  0.93159  Biso   1.000  He
  He108    1.0000 0.88679  0.17649  0.94161  Biso   1.000  He
  Ne108    1.0000 0.90465  0.18971  0.91653  Biso   1.000  Ne
  Ne109    1.0000 0.42598  0.59191  0.91066  Biso   1.000  Ne
  He109    1.0000 0.42499  0.62368  0.91586  Biso   1.000  He
  He110    1.0000 0.39423  0.63471  0.92464  Biso   1.000  He
  Ne110    1.0000 0.39555  0.66702  0.93243  Biso   1.000  Ne
  Ne111    1.0000 0.99910  0.06990  0.06211  Biso   1.000  Ne
  He111    1.0000 0.99094  0.04707  0.08256  Biso   1.000  He
  He112    1.0000 0.96528  0.05575  0.10158  Biso   1.000  He
  Ne112    1.0000 0.95928  0.03245  0.12416  Biso   1.000  Ne
  Ne113    1.0000 0.26923  0.27746  0.44662  Biso   1.000  Ne
  He113    1.0000 0.25362  0.27922  0.41849  Biso   1.000  He
  He114    1.0000 0.24708  0.30923  0.41015  Biso   1.000  He
  Ne114    1.0000 0.23153  0.31238  0.38182  Biso   1.000  Ne
  Ne115    1.0000 0.62066  0.21330  0.45341  Biso   1.000  Ne
  He115    1.0000 0.61892  0.17847  0.45187  Biso   1.000  He
  He116    1.0000 0.60291  0.16483  0.42532  Biso   1.000  He
  Ne116    1.0000 0.59952  0.13146  0.42079  Biso   1.000  Ne
  Ne117    1.0000 0.52240  0.28168  0.65509  Biso   1.000  Ne
  He117    1.0000 0.55507  0.27813  0.64570  Biso   1.000  He
  He118    1.0000 0.56162  0.25306  0.62742  Biso   1.000  He
  Ne118    1.0000 0.59325  0.24668  0.62540  Biso   1.000  Ne
  Ne119    1.0000 0.51570  0.55532  0.96377  Biso   1.000  Ne
  He119    1.0000 0.49019  0.55276  0.98549  Biso   1.000  He
  He120    1.0000 0.49646  0.55811  0.01726  Biso   1.000  He
  Ne120    1.0000 0.46901  0.56058  0.03609  Biso   1.000  Ne
  Ne121    1.0000 0.50725  0.03422  0.56497  Biso   1.000  Ne
  He121    1.0000 0.51868  0.05426  0.58942  Biso   1.000  He
  He122    1.0000 0.54922  0.05065  0.59905  Biso   1.000  He
  Ne122    1.0000 0.55823  0.07363  0.62092  Biso   1.000  Ne
  Ne123    1.0000 0.93905  0.72105  0.29715  Biso   1.000  Ne
  He123    1.0000 0.93005  0.74757  0.27838  Biso   1.000  He
  He124    1.0000 0.91352  0.77487  0.29485  Biso   1.000  He
  Ne124    1.0000 0.90568  0.80144  0.27684  Biso   1.000  Ne
  Ne125    1.0000 0.87721  0.64161  0.26911  Biso   1.000  Ne
  He125    1.0000 0.88323  0.61457  0.28619  Biso   1.000  He
  He126    1.0000 0.91930  0.61149  0.28844  Biso   1.000  He
  Ne126    1.0000 0.93044  0.58435  0.30086  Biso   1.000  Ne
  Ne127    1.0000 0.35191  0.38921  0.21066  Biso   1.000  Ne
  He127    1.0000 0.37848  0.40131  0.19471  Biso   1.000  He
  He128    1.0000 0.40368  0.37869  0.19594  Biso   1.000  He
  Ne128    1.0000 0.43076  0.39021  0.18240  Biso   1.000  Ne
  Ne129    1.0000 0.41061  0.07322  0.44294  Biso   1.000  Ne
  He129    1.0000 0.41365  0.07768  0.40941  Biso   1.000  He
  He130    1.0000 0.43915  0.09942  0.39988  Biso   1.000  He
  Ne130    1.0000 0.43549  0.10955  0.36788  Biso   1.000  Ne
  Ne131    1.0000 0.57824  0.58592  0.82752  Biso   1.000  Ne
  He131    1.0000 0.59482  0.61177  0.84372  Biso   1.000  He
  He132    1.0000 0.58540  0.64282  0.83573  Biso   1.000  He
  Ne132    1.0000 0.59469  0.66856  0.85520  Biso   1.000  Ne
  Ne133    1.0000 0.14206  0.19650  0.10682  Biso   1.000  Ne
  He133    1.0000 0.12074  0.17881  0.08983  Biso   1.000  He
  He134    1.0000 0.10314  0.15640  0.11054  Biso   1.000  He
  Ne134    1.0000 0.07770  0.13791  0.09633  Biso   1.000  Ne
  Ne135    1.0000 0.62557  0.85373  0.62163  Biso   1.000  Ne
  He135    1.0000 0.62207  0.82061  0.61714  Biso   1.000  He
  He136    1.0000 0.58813  0.81006  0.61574  Biso   1.000  He
  Ne136    1.0000 0.58356  0.77473  0.61478  Biso   1.000  Ne
  Ne137    1.0000 0.36102  0.18664  0.35323  Biso   1.000  Ne
  He137    1.0000 0.37118  0.18383  0.38631  Biso   1.000  He
  He138    1.0000 0.34917  0.19766  0.40852  Biso   1.000  He
  Ne138    1.0000 0.35594  0.19341  0.43900  Biso   1.000  Ne
  Ne139    1.0000 0.42782  0.93889  0.46845  Biso   1.000  Ne
  He139    1.0000 0.43166  0.96147  0.49296  Biso   1.000  He
  He140    1.0000 0.42683  0.99398  0.48553  Biso   1.000  He
  Ne140    1.0000 0.43083  0.01338  0.51147  Biso   1.000  Ne
  Ne141    1.0000 0.52321  0.12979  0.23308  Biso   1.000  Ne
  He141    1.0000 0.50940  0.13609  0.20412  Biso   1.000  He
  He142    1.0000 0.48012  0.15198  0.20594  Biso   1.000  He
  Ne142    1.0000 0.46426  0.16298  0.17754  Biso   1.000  Ne
  Ne143    1.0000 0.10246  0.85241  0.93524  Biso   1.000  Ne
  He143    1.0000 0.10737  0.88413  0.94799  Biso   1.000  He
  He144    1.0000 0.08775  0.90755  0.93300  Biso   1.000  He
  Ne144    1.0000 0.09614  0.93703  0.94218  Biso   1.000  Ne
  Ne145    1.0000 0.02731  0.40744  0.48256  Biso   1.000  Ne
  He145    1.0000 0.05907  0.41164  0.47459  Biso   1.000  He
  He146    1.0000 0.06476  0.42389  0.44479  Biso   1.000  He
  Ne146    1.0000 0.09876  0.43111  0.44183  Biso   1.000  Ne
  Ne147    1.0000 0.65589  0.91909  0.44278  Biso   1.000  Ne
  He147    1.0000 0.68222  0.90280  0.42938  Biso   1.000  He
  He148    1.0000 0.70982  0.91095  0.44436  Biso   1.000  He
  Ne148    1.0000 0.73214  0.89021  0.44051  Biso   1.000  Ne
  Ne149    1.0000 0.41206  0.46469  0.02504  Biso   1.000  Ne
  He149    1.0000 0.42623  0.44325  0.04639  Biso   1.000  He
  He150    1.0000 0.40625  0.43034  0.06767  Biso   1.000  He
  Ne150    1.0000 0.42258  0.40664  0.08470  Biso   1.000  Ne
  Ne151    1.0000 0.58608  0.30857  0.10335  Biso   1.000  Ne
  He151    1.0000 0.58935  0.31813  0.13512  Biso   1.000  He
  He152    1.0000 0.59775  0.29456  0.15586  Biso   1.000  He
  Ne152    1.0000 0.60335  0.30400  0.18835  Biso   1.000  Ne
  Ne153    1.0000 0.59811  0.16166  0.63419  Biso   1.000  Ne
  He153    1.0000 0.60680  0.16030  0.66680  Biso   1.000  He
  He154    1.0000 0.58905  0.17798  0.68745  Biso   1.000  He
  Ne154    1.0000 0.60216  0.17438  0.71821  Biso   1.000  Ne
  Ne155    1.0000 0.90284  0.34023  0.69451  Biso   1.000  Ne
  He155    1.0000 0.89509  0.37313  0.70217  Biso   1.000  He
  He156    1.0000 0.87488  0.37400  0.72755  Biso   1.000  He
  Ne156    1.0000 0.86164  0.40382  0.73408  Biso   1.000  Ne
  Ne157    1.0000 0.23984  0.84010  0.10508  Biso   1.000  Ne
  He157    1.0000 0.23269  0.80776  0.10309  Biso   1.000  He
  He158    1.0000 0.20229  0.80053  0.11406  Biso   1.000  He
  Ne158    1.0000 0.19452  0.76829  0.10334  Biso   1.000  Ne
  Ne159    1.0000 0.10091  0.10442  0.84463  Biso   1.000  Ne
  He159    1.0000 0.13505  0.10253  0.84544  Biso   1.000  He
  He160    1.0000 0.14803  0.07104  0.85011  Biso   1.000  He
  Ne160    1.0000 0.18160  0.07135  0.84724  Biso   1.000  Ne
  Ne161    1.0000 0.86769  0.42109  0.60772  Biso   1.000  Ne
  He161    1.0000 0.84357  0.39757  0.60805  Biso   1.000  He
  He162    1.0000 0.85249  0.36749  0.61688  Biso   1.000  He
  Ne162    1.0000 0.82696  0.34594  0.62193  Biso   1.000  Ne
  Ne163    1.0000 0.61427  0.40403  0.21675  Biso   1.000  Ne
  He163    1.0000 0.61272  0.40166  0.18482  Biso   1.000  He
  He164    1.0000 0.64501  0.40415  0.17135  Biso   1.000  He
  Ne164    1.0000 0.64492  0.39561  0.13959  Biso   1.000  Ne
  Ne165    1.0000 0.57950  0.98460  0.47223  Biso   1.000  Ne
  He165    1.0000 0.58725  0.01467  0.45929  Biso   1.000  He
  He166    1.0000 0.55925  0.03298  0.44960  Biso   1.000  He
  Ne166    1.0000 0.56829  0.05770  0.42775  Biso   1.000  Ne
  Ne167    1.0000 0.93967  0.71515  0.85592  Biso   1.000  Ne
  He167    1.0000 0.95385  0.69817  0.83071  Biso   1.000  He
  He168    1.0000 0.93765  0.66646  0.82204  Biso   1.000  He
  Ne168    1.0000 0.95810  0.64550  0.80321  Biso   1.000  Ne
  Ne169    1.0000 0.23413  0.07995  0.93510  Biso   1.000  Ne
  He169    1.0000 0.20260  0.06698  0.93661  Biso   1.000  He
  He170    1.0000 0.18153  0.09033  0.94876  Biso   1.000  He
  Ne170    1.0000 0.15231  0.08002  0.94952  Biso   1.000  Ne
  Ne171    1.0000 0.12851  0.84049  0.23508  Biso   1.000  Ne
  He171    1.0000 0.12768  0.87214  0.24052  Biso   1.000  He
  He172    1.0000 0.12431  0.88884  0.21318  Biso   1.000  He
  Ne172    1.0000 0.09272  0.89689  0.20513  Biso   1.000  Ne
  Ne173    1.0000 0.56507  0.59122  0.08668  Biso   1.000  Ne
  He173    1.0000 0.57416  0.56431  0.06996  Biso   1.000  He
  He174    1.0000 0.58643  0.53835  0.08663  Biso   1.000  He
  Ne174    1.0000 0.58225  0.50830  0.07052  Biso   1.000  Ne
  Ne175    1.0000 0.39978  0.19720  0.73277  Biso   1.000  Ne
  He175    1.0000 0.41891  0.22424  0.74170  Biso   1.000  He
  He176    1.0000 0.43061  0.24366  0.71718  Biso   1.000  He
  Ne176    1.0000 0.45321  0.26516  0.73125  Biso   1.000  Ne
  Ne177    1.0000 0.07896  0.39859  0.36523  Biso   1.000  Ne
  He177    1.0000 0.10279  0.37940  0.35301  Biso   1.000  He
  He178    1.0000 0.09353  0.35169  0.33758  Biso   1.000  He
  Ne178    1.0000 0.11836  0.33237  0.33458  Biso   1.000  Ne
  Ne179    1.0000 0.16744  0.89329  0.85666  Biso   1.000  Ne
  He179    1.0000 0.18488  0.87392  0.83460  Biso   1.000  He
  He180    1.0000 0.19574  0.84454  0.84693  Biso   1.000  He
  Ne180    1.0000 0.20191  0.82009  0.82379  Biso   1.000  Ne
  Ne181    1.0000 0.11132  0.58818  0.70594  Biso   1.000  Ne
  He181    1.0000 0.11545  0.61836  0.69537  Biso   1.000  He
  He182    1.0000 0.08625  0.63063  0.68156  Biso   1.000  He
  Ne182    1.0000 0.08784  0.66284  0.67269  Biso   1.000  Ne
  Ne183    1.0000 0.59128  0.87289  0.45620  Biso   1.000  Ne
  He183    1.0000 0.59117  0.83836  0.45836  Biso   1.000  He
  He184    1.0000 0.60879  0.82219  0.43697  Biso   1.000  He
  Ne184    1.0000 0.60302  0.78976  0.43404  Biso   1.000  Ne
  Ne185    1.0000 0.92107  0.34497  0.45597  Biso   1.000  Ne
  He185    1.0000 0.89662  0.36343  0.46312  Biso   1.000  He
  He186    1.0000 0.89837  0.39252  0.44782  Biso   1.000  He
  Ne186    1.0000 0.87229  0.41121  0.45200  Biso   1.000  Ne
  Ne187    1.0000 0.75565  0.42134  0.63935  Biso   1.000  Ne
  He187    1.0000 0.75747  0.43699  0.67184  Biso   1.000  He
  He188    1.0000 0.76301  0.41555  0.69280  Biso   1.000  He
  Ne188    1.0000 0.76159  0.42376  0.72380  Biso   1.000  Ne
  Ne189    1.0000 0.83467  0.65767  0.95730  Biso   1.000  Ne
  He189    1.0000 0.86723  0.66833  0.95528  Biso   1.000  He
  He190    1.0000 0.88458  0.65001  0.93140  Biso   1.000  He
  Ne190    1.0000 0.91855  0.65918  0.92840  Biso   1.000  Ne
  Ne191    1.0000 0.78707  0.94576  0.61821  Biso   1.000  Ne
  He191    1.0000 0.76650  0.92771  0.60077  Biso   1.000  He
  He192    1.0000 0.73377  0.92783  0.61006  Biso   1.000  He
  Ne192    1.0000 0.71427  0.90686  0.59613  Biso   1.000  Ne
  Ne193    1.0000 0.82221  0.47063  0.20622  Biso   1.000  Ne
  He193    1.0000 0.84905  0.48599  0.19586  Biso   1.000  He
  He194    1.0000 0.83929  0.50532  0.16858  Biso   1.000  He
  Ne194    1.0000 0.86421  0.52627  0.15955  Biso   1.000  Ne
  Ne195    1.0000 0.28586  0.08414  0.45290  Biso   1.000  Ne
  He195    1.0000 0.31500  0.08571  0.43635  Biso   1.000  He
  He196    1.0000 0.31688  0.09883  0.40530  Biso   1.000  He
  Ne196    1.0000 0.31600  0.07884  0.37983  Biso   1.000  Ne
  Ne197    1.0000 0.60080  0.95690  0.54843  Biso   1.000  Ne
  He197    1.0000 0.58213  0.95049  0.57682  Biso   1.000  He
  He198    1.0000 0.57836  0.91797  0.58535  Biso   1.000  He
  Ne198    1.0000 0.56416  0.91212  0.61382  Biso   1.000  Ne
  Ne199    1.0000 0.70201  0.10289  0.61097  Biso   1.000  Ne
  He199    1.0000 0.68280  0.07643  0.60482  Biso   1.000  He
  He200    1.0000 0.64997  0.08196  0.60158  Biso   1.000  He
  Ne200    1.0000 0.63514  0.05347  0.59458  Biso   1.000  Ne
  Ne201    1.0000 0.89072  0.15861  0.14632  Biso   1.000  Ne
  He201    1.0000 0.89541  0.12944  0.16047  Biso   1.000  He
  He202    1.0000 0.90462  0.13036  0.19201  Biso   1.000  He
  Ne202    1.0000 0.91193  0.10013  0.20489  Biso   1.000  Ne
  Ne203    1.0000 0.93637  0.28233  0.62206  Biso   1.000  Ne
  He203    1.0000 0.95246  0.25189  0.62512  Biso   1.000  He
  He204    1.0000 0.93132  0.22575  0.61782  Biso   1.000  He
  Ne204    1.0000 0.94616  0.19657  0.61945  Biso   1.000  Ne
  Ne205    1.0000 0.07528  0.11421  0.91891  Biso   1.000  Ne
  He205    1.0000 0.07095  0.09931  0.94907  Biso   1.000  He
  He206    1.0000 0.07239  0.06624  0.94991  Biso   1.000  He
  Ne206    1.0000 0.07308  0.05655  0.98137  Biso   1.000  Ne
  Ne207    1.0000 0.96146  0.03584  0.99118  Biso   1.000  Ne
  He207    1.0000 0.95380  0.06222  0.97007  Biso   1.000  He
  He208    1.0000 0.93212  0.08284  0.97904  Biso   1.000  He
  Ne208    1.0000 0.92999  0.10742  0.95608  Biso   1.000  Ne
  Ne209    1.0000 0.91557  0.75233  0.94073  Biso   1.000  Ne
  He209    1.0000 0.92914  0.77531  0.92114  Biso   1.000  He
  He210    1.0000 0.91259  0.80062  0.90734  Biso   1.000  He
  Ne210    1.0000 0.92811  0.82150  0.88836  Biso   1.000  Ne
  Ne211    1.0000 0.22885  0.36453  0.62997  Biso   1.000  Ne
  He211    1.0000 0.25518  0.37163  0.61210  Biso   1.000  He
  He212    1.0000 0.25811  0.40169  0.59853  Biso   1.000  He
  Ne212    1.0000 0.28736  0.40681  0.58060  Biso   1.000  Ne
  Ne213    1.0000 0.84540  0.90046  0.88928  Biso   1.000  Ne
  He213    1.0000 0.87370  0.91347  0.89556  Biso   1.000  He
  He214    1.0000 0.87686  0.91951  0.92776  Biso   1.000  He
  Ne214    1.0000 0.90740  0.93237  0.93785  Biso   1.000  Ne
  Ne215    1.0000 0.42802  0.10148  0.58103  Biso   1.000  Ne
  He215    1.0000 0.42093  0.07612  0.60463  Biso   1.000  He
  He216    1.0000 0.38890  0.07521  0.61807  Biso   1.000  He
  Ne216    1.0000 0.38466  0.04726  0.63289  Biso   1.000  Ne
  Ne217    1.0000 0.40799  0.55901  0.18736  Biso   1.000  Ne
  He217    1.0000 0.39782  0.55849  0.15623  Biso   1.000  He
  He218    1.0000 0.36525  0.57065  0.15023  Biso   1.000  He
  Ne218    1.0000 0.36006  0.57508  0.11651  Biso   1.000  Ne
  Ne219    1.0000 0.88441  0.85516  0.10295  Biso   1.000  Ne
  He219    1.0000 0.89016  0.82120  0.10333  Biso   1.000  He
  He220    1.0000 0.92292  0.81145  0.11037  Biso   1.000  He
  Ne220    1.0000 0.92652  0.77859  0.10840  Biso   1.000  Ne
  Ne221    1.0000 0.28265  0.84451  0.44115  Biso   1.000  Ne
  He221    1.0000 0.29482  0.81485  0.44139  Biso   1.000  He
  He222    1.0000 0.27110  0.79274  0.43777  Biso   1.000  He
  Ne222    1.0000 0.28508  0.76172  0.42897  Biso   1.000  Ne
  Ne223    1.0000 0.30360  0.56320  0.21211  Biso   1.000  Ne
  He223    1.0000 0.31602  0.58559  0.23102  Biso   1.000  He
  He224    1.0000 0.32332  0.57413  0.26120  Biso   1.000  He
  Ne224    1.0000 0.33436  0.59724  0.28106  Biso   1.000  Ne
  Ne225    1.0000 0.66004  0.37976  0.94202  Biso   1.000  Ne
  He225    1.0000 0.66489  0.34868  0.93118  Biso   1.000  He
  He226    1.0000 0.69571  0.33745  0.93639  Biso   1.000  He
  Ne226    1.0000 0.70046  0.30593  0.92863  Biso   1.000  Ne
  Ne227    1.0000 0.74166  0.88183  0.69245  Biso   1.000  Ne
  He227    1.0000 0.71043  0.87444  0.68305  Biso   1.000  He
  He228    1.0000 0.69179  0.90168  0.68260  Biso   1.000  He
  Ne228    1.0000 0.65932  0.89267  0.67569  Biso   1.000  Ne
  Ne229    1.0000 0.35903  0.42486  0.28945  Biso   1.000  Ne
  He229    1.0000 0.34150  0.42622  0.31887  Biso   1.000  He
  He230    1.0000 0.35289  0.45111  0.33810  Biso   1.000  He
  Ne230    1.0000 0.34253  0.45016  0.36986  Biso   1.000  Ne
  Ne231    1.0000 0.57964  0.37088  0.96364  Biso   1.000  Ne
  He231    1.0000 0.57606  0.39228  0.93815  Biso   1.000  He
  He232    1.0000 0.58168  0.42268  0.94728  Biso   1.000  He
  Ne232    1.0000 0.57724  0.44719  0.92346  Biso   1.000  Ne
  Ne233    1.0000 0.59809  0.31996  0.87012  Biso   1.000  Ne
  He233    1.0000 0.59904  0.31937  0.83809  Biso   1.000  He
  He234    1.0000 0.61757  0.34152  0.82542  Biso   1.000  He
  Ne234    1.0000 0.61871  0.33677  0.79290  Biso   1.000  Ne
  Ne235    1.0000 0.78702  0.58552  0.27516  Biso   1.000  Ne
  He235    1.0000 0.76744  0.59662  0.25125  Biso   1.000  He
  He236    1.0000 0.77356  0.58285  0.22144  Biso   1.000  He
  Ne236    1.0000 0.79159  0.60097  0.20060  Biso   1.000  Ne
  Ne237    1.0000 0.31464  0.10837  0.30049  Biso   1.000  Ne
  He237    1.0000 0.34344  0.12332  0.29465  Biso   1.000  He
  He238    1.0000 0.37013  0.10445  0.28995  Biso   1.000  He
  Ne238    1.0000 0.39552  0.12075  0.27689  Biso   1.000  Ne
  Ne239    1.0000 0.93793  0.65581  0.65936  Biso   1.000  Ne
  He239    1.0000 0.93139  0.64469  0.62648  Biso   1.000  He
  He240    1.0000 0.90230  0.65391  0.61578  Biso   1.000  He
  Ne240    1.0000 0.89542  0.64336  0.58452  Biso   1.000  Ne
