data_image0
_cell_length_a       46.831
_cell_length_b       47.0576
_cell_length_c       46.6382
_cell_angle_alpha    90
_cell_angle_beta     90
_cell_angle_gamma    90

_symmetry_space_group_name_H-M    "P 1"
_symmetry_int_tables_number       1

loop_
  _symmetry_equiv_pos_as_xyz
  'x, y, z'

loop_
  _atom_site_label
  _atom_site_occupancy
  _atom_site_fract_x
  _atom_site_fract_y
  _atom_site_fract_z
  _atom_site_thermal_displace_type
  _atom_site_B_iso_or_equiv
  _atom_site_type_symbol
  Ne1      1.0000 0.73397  0.83855  0.61325  Biso   1.000  Ne
  He1      1.0000 0.73356  0.87241  0.60274  Biso   1.000  He
  He2      1.0000 0.75292  0.89381  0.61808  Biso   1.000  He
  Ne2      1.0000 0.75432  0.92493  0.60738  Biso   1.000  Ne
  Ne3      1.0000 0.36142  0.08938  0.43593  Biso   1.000  Ne
  He3      1.0000 0.33128  0.07630  0.43672  Biso   1.000  He
  He4      1.0000 0.30853  0.10109  0.44606  Biso   1.000  He
  Ne4      1.0000 0.28268  0.10696  0.42577  Biso   1.000  Ne
  Ne5      1.0000 0.99841  0.95782  0.93224  Biso   1.000  Ne
  He5      1.0000 0.97752  0.95854  0.95628  Biso   1.000  He
  He6      1.0000 0.94559  0.95285  0.95108  Biso   1.000  He
  Ne6      1.0000 0.92726  0.96000  0.97526  Biso   1.000  Ne
  Ne7      1.0000 0.56507  0.03879  0.43736  Biso   1.000  Ne
  He7      1.0000 0.58096  0.06491  0.42272  Biso   1.000  He
  He8      1.0000 0.58343  0.09250  0.44413  Biso   1.000  He
  Ne8      1.0000 0.60254  0.11785  0.43141  Biso   1.000  Ne
  Ne9      1.0000 0.44120  0.77881  0.86592  Biso   1.000  Ne
  He9      1.0000 0.43992  0.75183  0.84592  Biso   1.000  He
  He10     1.0000 0.42157  0.72446  0.85761  Biso   1.000  He
  Ne10     1.0000 0.42457  0.69566  0.84067  Biso   1.000  Ne
  Ne11     1.0000 0.18385  0.90123  0.92866  Biso   1.000  Ne
  He11     1.0000 0.21420  0.89400  0.92593  Biso   1.000  He
  He12     1.0000 0.23585  0.90665  0.94845  Biso   1.000  He
  Ne12     1.0000 0.26562  0.89537  0.94533  Biso   1.000  Ne
  Ne13     1.0000 0.40033  0.17430  0.43411  Biso   1.000  Ne
  He13     1.0000 0.42398  0.19565  0.44630  Biso   1.000  He
  He14     1.0000 0.41073  0.22433  0.45050  Biso   1.000  He
  Ne14     1.0000 0.43650  0.24754  0.46161  Biso   1.000  Ne
  Ne15     1.0000 0.90497  0.08099  0.11241  Biso   1.000  Ne
  He15     1.0000 0.87267  0.09081  0.10643  Biso   1.000  He
  He16     1.0000 0.86837  0.12304  0.10335  Biso   1.000  He
  Ne16     1.0000 0.83903  0.13163  0.09246  Biso   1.000  Ne
  Ne17     1.0000 0.30628  0.27441  0.14249  Biso   1.000  Ne
  He17     1.0000 0.29694  0.30695  0.14183  Biso   1.000  He
  He18     1.0000 0.31324  0.32753  0.12221  Biso   1.000  He
  Ne18     1.0000 0.29677  0.35875  0.12018  Biso   1.000  Ne
  Ne19     1.0000 0.22803  0.64950  0.06697  Biso   1.000  Ne
  He19     1.0000 0.23967  0.61772  0.07119  Biso   1.000  He
  He20     1.0000 0.26917  0.61240  0.06046  Biso   1.000  He
  Ne20     1.0000 0.27659  0.58127  0.06380  Biso   1.000  Ne
  Ne21     1.0000 0.18253  0.79627  0.54224  Biso   1.000  Ne
  He21     1.0000 0.21174  0.80526  0.55443  Biso   1.000  He
  He22     1.0000 0.22121  0.78680  0.58050  Biso   1.000  He
  Ne22     1.0000 0.25089  0.79542  0.59212  Biso   1.000  Ne
  Ne23     1.0000 0.25736  0.09583  0.24715  Biso   1.000  Ne
  He23     1.0000 0.22179  0.08812  0.25417  Biso   1.000  He
  He24     1.0000 0.21134  0.08934  0.28472  Biso   1.000  He
  Ne24     1.0000 0.17842  0.08473  0.29255  Biso   1.000  Ne
  Ne25     1.0000 0.86661  0.42412  0.30253  Biso   1.000  Ne
  He25     1.0000 0.84576  0.39803  0.30337  Biso   1.000  He
  He26     1.0000 0.81836  0.40311  0.32359  Biso   1.000  He
  Ne26     1.0000 0.79924  0.37499  0.32179  Biso   1.000  Ne
  Ne27     1.0000 0.70126  0.76173  0.58996  Biso   1.000  Ne
  He27     1.0000 0.73275  0.76523  0.59779  Biso   1.000  He
  He28     1.0000 0.75500  0.74108  0.58979  Biso   1.000  He
  Ne28     1.0000 0.78427  0.74721  0.59691  Biso   1.000  Ne
  Ne29     1.0000 0.71298  0.36874  0.53259  Biso   1.000  Ne
  He29     1.0000 0.70647  0.34612  0.50897  Biso   1.000  He
  He30     1.0000 0.72798  0.33968  0.48789  Biso   1.000  He
  Ne30     1.0000 0.71363  0.32524  0.46195  Biso   1.000  Ne
  Ne31     1.0000 0.79314  0.33487  0.43536  Biso   1.000  Ne
  He31     1.0000 0.81446  0.36055  0.44098  Biso   1.000  He
  He32     1.0000 0.81981  0.37937  0.41526  Biso   1.000  He
  Ne32     1.0000 0.84188  0.40136  0.42374  Biso   1.000  Ne
  Ne33     1.0000 0.40057  0.40279  0.93728  Biso   1.000  Ne
  He33     1.0000 0.42655  0.40683  0.96023  Biso   1.000  He
  He34     1.0000 0.45599  0.41371  0.94698  Biso   1.000  He
  Ne34     1.0000 0.48016  0.41291  0.96817  Biso   1.000  Ne
  Ne35     1.0000 0.80433  0.96798  0.46181  Biso   1.000  Ne
  He35     1.0000 0.78830  0.95410  0.48830  Biso   1.000  He
  He36     1.0000 0.79676  0.96714  0.51415  Biso   1.000  He
  Ne36     1.0000 0.78540  0.95069  0.54128  Biso   1.000  Ne
  Ne37     1.0000 0.56726  0.70822  0.15450  Biso   1.000  Ne
  He37     1.0000 0.59645  0.71444  0.13489  Biso   1.000  He
  He38     1.0000 0.60018  0.74863  0.12759  Biso   1.000  He
  Ne38     1.0000 0.63054  0.75745  0.11603  Biso   1.000  Ne
  Ne39     1.0000 0.36545  0.56577  0.85189  Biso   1.000  Ne
  He39     1.0000 0.34013  0.57804  0.86662  Biso   1.000  He
  He40     1.0000 0.34325  0.58408  0.90040  Biso   1.000  He
  Ne40     1.0000 0.32077  0.60258  0.91705  Biso   1.000  Ne
  Ne41     1.0000 0.12252  0.62421  0.67817  Biso   1.000  Ne
  He41     1.0000 0.13649  0.65220  0.69061  Biso   1.000  He
  He42     1.0000 0.12281  0.68202  0.68031  Biso   1.000  He
  Ne42     1.0000 0.13088  0.70927  0.69415  Biso   1.000  Ne
  Ne43     1.0000 0.38220  0.90255  0.43813  Biso   1.000  Ne
  He43     1.0000 0.41014  0.89208  0.45421  Biso   1.000  He
  He44     1.0000 0.43718  0.89480  0.43684  Biso   1.000  He
  Ne44     1.0000 0.46218  0.88463  0.45450  Biso   1.000  Ne
  Ne45     1.0000 0.74352  0.13725  0.43761  Biso   1.000  Ne
  He45     1.0000 0.72883  0.16731  0.43787  Biso   1.000  He
  He46     1.0000 0.69973  0.16579  0.41972  Biso   1.000  He
  Ne46     1.0000 0.68348  0.19371  0.41334  Biso   1.000  Ne
  Ne47     1.0000 0.06498  0.60270  0.57964  Biso   1.000  Ne
  He47     1.0000 0.08591  0.57230  0.58039  Biso   1.000  He
  He48     1.0000 0.07648  0.54564  0.56280  Biso   1.000  He
  Ne48     1.0000 0.09797  0.51956  0.56716  Biso   1.000  Ne
  Ne49     1.0000 0.11093  0.21937  0.11446  Biso   1.000  Ne
  He49     1.0000 0.09335  0.20718  0.14102  Biso   1.000  He
  He50     1.0000 0.10850  0.18325  0.15639  Biso   1.000  He
  Ne50     1.0000 0.09573  0.17343  0.18377  Biso   1.000  Ne
  Ne51     1.0000 0.59687  0.11475  0.62242  Biso   1.000  Ne
  He51     1.0000 0.58956  0.08495  0.60673  Biso   1.000  He
  He52     1.0000 0.61618  0.06750  0.59713  Biso   1.000  He
  Ne52     1.0000 0.61662  0.04303  0.57706  Biso   1.000  Ne
  Ne53     1.0000 0.61223  0.21028  0.78591  Biso   1.000  Ne
  He53     1.0000 0.59018  0.22218  0.80442  Biso   1.000  He
  He54     1.0000 0.57690  0.20242  0.82807  Biso   1.000  He
  Ne54     1.0000 0.55751  0.22033  0.84850  Biso   1.000  Ne
  Ne55     1.0000 0.58391  0.86787  0.37444  Biso   1.000  Ne
  He55     1.0000 0.60425  0.84329  0.36705  Biso   1.000  He
  He56     1.0000 0.59620  0.81829  0.34683  Biso   1.000  He
  Ne56     1.0000 0.61610  0.79228  0.34350  Biso   1.000  Ne
  Ne57     1.0000 0.89468  0.87147  0.92195  Biso   1.000  Ne
  He57     1.0000 0.89498  0.86785  0.88771  Biso   1.000  He
  He58     1.0000 0.92475  0.85249  0.88223  Biso   1.000  He
  Ne58     1.0000 0.93386  0.84851  0.85009  Biso   1.000  Ne
  Ne59     1.0000 0.18852  0.42223  0.60586  Biso   1.000  Ne
  He59     1.0000 0.22166  0.42027  0.61610  Biso   1.000  He
  He60     1.0000 0.24000  0.42756  0.58879  Biso   1.000  He
  Ne60     1.0000 0.27329  0.42513  0.59373  Biso   1.000  Ne
  Ne61     1.0000 0.09496  0.93243  0.14128  Biso   1.000  Ne
  He61     1.0000 0.10495  0.92665  0.11176  Biso   1.000  He
  He62     1.0000 0.09906  0.94900  0.08970  Biso   1.000  He
  Ne62     1.0000 0.10694  0.94217  0.05984  Biso   1.000  Ne
  Ne63     1.0000 0.46249  0.40729  0.07031  Biso   1.000  Ne
  He63     1.0000 0.49189  0.41851  0.08241  Biso   1.000  He
  He64     1.0000 0.51516  0.42280  0.06082  Biso   1.000  He
  Ne64     1.0000 0.54342  0.43302  0.07148  Biso   1.000  Ne
  Ne65     1.0000 0.89000  0.57235  0.46182  Biso   1.000  Ne
  He65     1.0000 0.86161  0.59198  0.45563  Biso   1.000  He
  He66     1.0000 0.86751  0.62146  0.44528  Biso   1.000  He
  Ne66     1.0000 0.83932  0.63965  0.43672  Biso   1.000  Ne
  Ne67     1.0000 0.59310  0.75713  0.43584  Biso   1.000  Ne
  He67     1.0000 0.59732  0.79055  0.42689  Biso   1.000  He
  He68     1.0000 0.60111  0.80901  0.45361  Biso   1.000  He
  Ne68     1.0000 0.60915  0.84159  0.44863  Biso   1.000  Ne
  Ne69     1.0000 0.92309  0.42040  0.36540  Biso   1.000  Ne
  He69     1.0000 0.91018  0.39095  0.36596  Biso   1.000  He
  He70     1.0000 0.92972  0.36632  0.36043  Biso   1.000  He
  Ne70     1.0000 0.91759  0.33620  0.36310  Biso   1.000  Ne
  Ne71     1.0000 0.69481  0.92834  0.34920  Biso   1.000  Ne
  He71     1.0000 0.68382  0.91293  0.37727  Biso   1.000  He
  He72     1.0000 0.70396  0.92152  0.40465  Biso   1.000  He
  Ne72     1.0000 0.68651  0.91706  0.43438  Biso   1.000  Ne
  Ne73     1.0000 0.24845  0.78181  0.89486  Biso   1.000  Ne
  He73     1.0000 0.23228  0.75289  0.89845  Biso   1.000  He
  He74     1.0000 0.21368  0.75379  0.92705  Biso   1.000  He
  Ne74     1.0000 0.19493  0.72675  0.93382  Biso   1.000  Ne
  Ne75     1.0000 0.40105  0.05796  0.58111  Biso   1.000  Ne
  He75     1.0000 0.41339  0.08406  0.59747  Biso   1.000  He
  He76     1.0000 0.43530  0.07474  0.62083  Biso   1.000  He
  Ne76     1.0000 0.45192  0.10170  0.63327  Biso   1.000  Ne
  Ne77     1.0000 0.35309  0.90297  0.71451  Biso   1.000  Ne
  He77     1.0000 0.37867  0.92276  0.70218  Biso   1.000  He
  He78     1.0000 0.40980  0.90779  0.70020  Biso   1.000  He
  Ne78     1.0000 0.43078  0.91727  0.67631  Biso   1.000  Ne
  Ne79     1.0000 0.60041  0.34354  0.88900  Biso   1.000  Ne
  He79     1.0000 0.60040  0.31446  0.90607  Biso   1.000  He
  He80     1.0000 0.57419  0.29535  0.89943  Biso   1.000  He
  Ne80     1.0000 0.57160  0.26696  0.91723  Biso   1.000  Ne
  Ne81     1.0000 0.85957  0.92741  0.79926  Biso   1.000  Ne
  He81     1.0000 0.88391  0.92939  0.81880  Biso   1.000  He
  He82     1.0000 0.91357  0.91942  0.80508  Biso   1.000  He
  Ne82     1.0000 0.93842  0.92888  0.82660  Biso   1.000  Ne
  Ne83     1.0000 0.15452  0.43189  0.44635  Biso   1.000  Ne
  He83     1.0000 0.16915  0.40927  0.42740  Biso   1.000  He
  He84     1.0000 0.20033  0.42174  0.41687  Biso   1.000  He
  Ne84     1.0000 0.21259  0.40031  0.39511  Biso   1.000  Ne
  Ne85     1.0000 0.94336  0.03900  0.02574  Biso   1.000  Ne
  He85     1.0000 0.94726  0.05653  0.00099  Biso   1.000  He
  He86     1.0000 0.95412  0.08706  0.00699  Biso   1.000  He
  Ne86     1.0000 0.95610  0.10971  0.98269  Biso   1.000  Ne
  Ne87     1.0000 0.96613  0.58045  0.52015  Biso   1.000  Ne
  He87     1.0000 0.95873  0.55951  0.54689  Biso   1.000  He
  He88     1.0000 0.92840  0.56480  0.55953  Biso   1.000  He
  Ne88     1.0000 0.91910  0.53949  0.58058  Biso   1.000  Ne
  Ne89     1.0000 0.44491  0.56131  0.09606  Biso   1.000  Ne
  He89     1.0000 0.41150  0.55850  0.09734  Biso   1.000  He
  He90     1.0000 0.39439  0.56797  0.07042  Biso   1.000  He
  Ne90     1.0000 0.36366  0.57593  0.08073  Biso   1.000  Ne
  Ne91     1.0000 0.27272  0.60705  0.79768  Biso   1.000  Ne
  He91     1.0000 0.27102  0.59794  0.82804  Biso   1.000  He
  He92     1.0000 0.25022  0.57176  0.83478  Biso   1.000  He
  Ne92     1.0000 0.24783  0.56275  0.86638  Biso   1.000  Ne
  Ne93     1.0000 0.80490  0.36286  0.63697  Biso   1.000  Ne
  He93     1.0000 0.81934  0.37904  0.61374  Biso   1.000  He
  He94     1.0000 0.85009  0.39220  0.62061  Biso   1.000  He
  Ne94     1.0000 0.85693  0.40567  0.59054  Biso   1.000  Ne
  Ne95     1.0000 0.15589  0.85451  0.11560  Biso   1.000  Ne
  He95     1.0000 0.17213  0.87482  0.13587  Biso   1.000  He
  He96     1.0000 0.18761  0.89904  0.12023  Biso   1.000  He
  Ne96     1.0000 0.19920  0.92418  0.14208  Biso   1.000  Ne
  Ne97     1.0000 0.69880  0.62683  0.68192  Biso   1.000  Ne
  He97     1.0000 0.72635  0.63408  0.66185  Biso   1.000  He
  He98     1.0000 0.74378  0.66137  0.67299  Biso   1.000  He
  Ne98     1.0000 0.77354  0.66629  0.65551  Biso   1.000  Ne
  Ne99     1.0000 0.61403  0.28105  0.10187  Biso   1.000  Ne
  He99     1.0000 0.61098  0.30863  0.12131  Biso   1.000  He
  He100    1.0000 0.60896  0.33703  0.10356  Biso   1.000  He
  Ne100    1.0000 0.60863  0.36360  0.12418  Biso   1.000  Ne
  Ne101    1.0000 0.86373  0.12309  0.82284  Biso   1.000  Ne
  He101    1.0000 0.89580  0.11394  0.82066  Biso   1.000  He
  He102    1.0000 0.90444  0.09214  0.84270  Biso   1.000  He
  Ne102    1.0000 0.93383  0.08537  0.83822  Biso   1.000  Ne
  Ne103    1.0000 0.59041  0.10096  0.34939  Biso   1.000  Ne
  He103    1.0000 0.60822  0.10126  0.32323  Biso   1.000  He
  He104    1.0000 0.58901  0.09233  0.29655  Biso   1.000  He
  Ne104    1.0000 0.60398  0.09390  0.26776  Biso   1.000  Ne
  Ne105    1.0000 0.42058  0.57471  0.17559  Biso   1.000  Ne
  He105    1.0000 0.39382  0.59218  0.18812  Biso   1.000  He
  He106    1.0000 0.38394  0.57874  0.21341  Biso   1.000  He
  Ne106    1.0000 0.35414  0.58925  0.22480  Biso   1.000  Ne
  Ne107    1.0000 0.67994  0.43556  0.18003  Biso   1.000  Ne
  He107    1.0000 0.69491  0.40717  0.16726  Biso   1.000  He
  He108    1.0000 0.71348  0.41368  0.14022  Biso   1.000  He
  Ne108    1.0000 0.73137  0.38904  0.13192  Biso   1.000  Ne
  Ne109    1.0000 0.25050  0.63762  0.61773  Biso   1.000  Ne
  He109    1.0000 0.26459  0.66666  0.62553  Biso   1.000  He
  He110    1.0000 0.28015  0.67853  0.60115  Biso   1.000  He
  Ne110    1.0000 0.28985  0.70963  0.60480  Biso   1.000  Ne
  Ne111    1.0000 0.09174  0.39319  0.30689  Biso   1.000  Ne
  He111    1.0000 0.11432  0.37431  0.32301  Biso   1.000  He
  He112    1.0000 0.12037  0.38510  0.35237  Biso   1.000  He
  Ne112    1.0000 0.14266  0.36395  0.36932  Biso   1.000  Ne
  Ne113    1.0000 0.92097  0.67990  0.68249  Biso   1.000  Ne
  He113    1.0000 0.93545  0.70976  0.67289  Biso   1.000  He
  He114    1.0000 0.92754  0.72033  0.64275  Biso   1.000  He
  Ne114    1.0000 0.93939  0.75106  0.63725  Biso   1.000  Ne
  Ne115    1.0000 0.62855  0.91546  0.70028  Biso   1.000  Ne
  He115    1.0000 0.60395  0.89394  0.69759  Biso   1.000  He
  He116    1.0000 0.60720  0.86891  0.68072  Biso   1.000  He
  Ne116    1.0000 0.58587  0.84547  0.68318  Biso   1.000  Ne
  Ne117    1.0000 0.09493  0.33606  0.45332  Biso   1.000  Ne
  He117    1.0000 0.10965  0.31023  0.45823  Biso   1.000  He
  He118    1.0000 0.14056  0.30823  0.44827  Biso   1.000  He
  Ne118    1.0000 0.15531  0.27718  0.45361  Biso   1.000  Ne
  Ne119    1.0000 0.79410  0.11425  0.91944  Biso   1.000  Ne
  He119    1.0000 0.82690  0.11717  0.92087  Biso   1.000  He
  He120    1.0000 0.84284  0.08899  0.91625  Biso   1.000  He
  Ne120    1.0000 0.87454  0.09213  0.91782  Biso   1.000  Ne
  Ne121    1.0000 0.70449  0.98257  0.14876  Biso   1.000  Ne
  He121    1.0000 0.70858  0.01675  0.15426  Biso   1.000  He
  He122    1.0000 0.71277  0.03563  0.12809  Biso   1.000  He
  Ne122    1.0000 0.71951  0.06759  0.13250  Biso   1.000  Ne
  Ne123    1.0000 0.11410  0.85621  0.19094  Biso   1.000  Ne
  He123    1.0000 0.10469  0.87645  0.21588  Biso   1.000  He
  He124    1.0000 0.10399  0.90690  0.20974  Biso   1.000  He
  Ne124    1.0000 0.09442  0.92429  0.23757  Biso   1.000  Ne
  Ne125    1.0000 0.07754  0.42663  0.67274  Biso   1.000  Ne
  He125    1.0000 0.09083  0.43399  0.70232  Biso   1.000  He
  He126    1.0000 0.11946  0.42023  0.70374  Biso   1.000  He
  Ne126    1.0000 0.13606  0.43261  0.73031  Biso   1.000  Ne
  Ne127    1.0000 0.34722  0.42760  0.12637  Biso   1.000  Ne
  He127    1.0000 0.36336  0.39831  0.12614  Biso   1.000  He
  He128    1.0000 0.38879  0.39820  0.10485  Biso   1.000  He
  Ne128    1.0000 0.40704  0.37059  0.10894  Biso   1.000  Ne
  Ne129    1.0000 0.22779  0.70515  0.72037  Biso   1.000  Ne
  He129    1.0000 0.20405  0.69300  0.73594  Biso   1.000  He
  He130    1.0000 0.21343  0.66670  0.75438  Biso   1.000  He
  Ne130    1.0000 0.18935  0.65046  0.76883  Biso   1.000  Ne
  Ne131    1.0000 0.45265  0.18067  0.26022  Biso   1.000  Ne
  He131    1.0000 0.43996  0.15669  0.27877  Biso   1.000  He
  He132    1.0000 0.43913  0.16451  0.31464  Biso   1.000  He
  Ne132    1.0000 0.42692  0.13987  0.33295  Biso   1.000  Ne
  Ne133    1.0000 0.58756  0.35300  0.20132  Biso   1.000  Ne
  He133    1.0000 0.57821  0.38068  0.21773  Biso   1.000  He
  He134    1.0000 0.58359  0.40996  0.20100  Biso   1.000  He
  Ne134    1.0000 0.60529  0.43155  0.21590  Biso   1.000  Ne
  Ne135    1.0000 0.32042  0.25710  0.74766  Biso   1.000  Ne
  He135    1.0000 0.29123  0.26780  0.73808  Biso   1.000  He
  He136    1.0000 0.28869  0.29121  0.71244  Biso   1.000  He
  Ne136    1.0000 0.25681  0.30028  0.70864  Biso   1.000  Ne
  Ne137    1.0000 0.94469  0.49466  0.46977  Biso   1.000  Ne
  He137    1.0000 0.96928  0.51686  0.46802  Biso   1.000  He
  He138    1.0000 0.97688  0.52838  0.43629  Biso   1.000  He
  Ne138    1.0000 0.96087  0.55630  0.42577  Biso   1.000  Ne
  Ne139    1.0000 0.16641  0.82815  0.85873  Biso   1.000  Ne
  He139    1.0000 0.14215  0.85308  0.85556  Biso   1.000  He
  He140    1.0000 0.11353  0.84748  0.87476  Biso   1.000  He
  Ne140    1.0000 0.09368  0.87320  0.87881  Biso   1.000  Ne
  Ne141    1.0000 0.41822  0.63065  0.92072  Biso   1.000  Ne
  He141    1.0000 0.41874  0.59746  0.91760  Biso   1.000  He
  He142    1.0000 0.42735  0.58097  0.94302  Biso   1.000  He
  Ne142    1.0000 0.42821  0.54629  0.93773  Biso   1.000  Ne
  Ne143    1.0000 0.61869  0.41838  0.76473  Biso   1.000  Ne
  He143    1.0000 0.60743  0.40456  0.79190  Biso   1.000  He
  He144    1.0000 0.60740  0.42496  0.81557  Biso   1.000  He
  Ne144    1.0000 0.59324  0.41357  0.84470  Biso   1.000  Ne
  Ne145    1.0000 0.19048  0.48132  0.02538  Biso   1.000  Ne
  He145    1.0000 0.21724  0.46755  0.01256  Biso   1.000  He
  He146    1.0000 0.21105  0.43531  0.99847  Biso   1.000  He
  Ne146    1.0000 0.23880  0.41871  0.98971  Biso   1.000  Ne
  Ne147    1.0000 0.14422  0.65037  0.59784  Biso   1.000  Ne
  He147    1.0000 0.13856  0.68196  0.58924  Biso   1.000  He
  He148    1.0000 0.10664  0.69001  0.59395  Biso   1.000  He
  Ne148    1.0000 0.10191  0.72191  0.58103  Biso   1.000  Ne
  Ne149    1.0000 0.16652  0.59137  0.44885  Biso   1.000  Ne
  He149    1.0000 0.18117  0.60893  0.42317  Biso   1.000  He
  He150    1.0000 0.17731  0.59428  0.39199  Biso   1.000  He
  Ne150    1.0000 0.19261  0.61023  0.36543  Biso   1.000  Ne
  Ne151    1.0000 0.86854  0.85431  0.29750  Biso   1.000  Ne
  He151    1.0000 0.90166  0.85715  0.30293  Biso   1.000  He
  He152    1.0000 0.91843  0.82907  0.30992  Biso   1.000  He
  Ne152    1.0000 0.95309  0.83250  0.31360  Biso   1.000  Ne
  Ne153    1.0000 0.66024  0.08980  0.68275  Biso   1.000  Ne
  He153    1.0000 0.64631  0.11277  0.70209  Biso   1.000  He
  He154    1.0000 0.61734  0.12574  0.69274  Biso   1.000  He
  Ne154    1.0000 0.60664  0.14853  0.71405  Biso   1.000  Ne
  Ne155    1.0000 0.38632  0.79259  0.26270  Biso   1.000  Ne
  He155    1.0000 0.40506  0.82084  0.26915  Biso   1.000  He
  He156    1.0000 0.42507  0.83062  0.24622  Biso   1.000  He
  Ne156    1.0000 0.44308  0.85708  0.25434  Biso   1.000  Ne
  Ne157    1.0000 0.48579  0.94876  0.48517  Biso   1.000  Ne
  He157    1.0000 0.48626  0.95286  0.51867  Biso   1.000  He
  He158    1.0000 0.48447  0.92303  0.53692  Biso   1.000  He
  Ne158    1.0000 0.48247  0.92737  0.57069  Biso   1.000  Ne
  Ne159    1.0000 0.11366  0.24907  0.30874  Biso   1.000  Ne
  He159    1.0000 0.09692  0.25055  0.33645  Biso   1.000  He
  He160    1.0000 0.10807  0.27240  0.35679  Biso   1.000  He
  Ne160    1.0000 0.09367  0.27078  0.38479  Biso   1.000  Ne
  Ne161    1.0000 0.07883  0.08809  0.88951  Biso   1.000  Ne
  He161    1.0000 0.09548  0.08014  0.86305  Biso   1.000  He
  He162    1.0000 0.10729  0.10652  0.84740  Biso   1.000  He
  Ne162    1.0000 0.12396  0.10212  0.81715  Biso   1.000  Ne
  Ne163    1.0000 0.28413  0.62743  0.15509  Biso   1.000  Ne
  He163    1.0000 0.31131  0.62978  0.13872  Biso   1.000  He
  He164    1.0000 0.31058  0.65481  0.11529  Biso   1.000  He
  Ne164    1.0000 0.33463  0.65577  0.09540  Biso   1.000  Ne
  Ne165    1.0000 0.91255  0.89975  0.16142  Biso   1.000  Ne
  He165    1.0000 0.92860  0.90437  0.19164  Biso   1.000  He
  He166    1.0000 0.94149  0.87444  0.19990  Biso   1.000  He
  Ne166    1.0000 0.95565  0.87770  0.23169  Biso   1.000  Ne
  Ne167    1.0000 0.37421  0.39096  0.77312  Biso   1.000  Ne
  He167    1.0000 0.39672  0.39700  0.79608  Biso   1.000  He
  He168    1.0000 0.41015  0.37257  0.80863  Biso   1.000  He
  Ne168    1.0000 0.43410  0.38226  0.83184  Biso   1.000  Ne
  Ne169    1.0000 0.18636  0.33472  0.80757  Biso   1.000  Ne
  He169    1.0000 0.15977  0.34034  0.79048  Biso   1.000  He
  He170    1.0000 0.13779  0.31629  0.79545  Biso   1.000  He
  Ne170    1.0000 0.11003  0.31531  0.77758  Biso   1.000  Ne
  Ne171    1.0000 0.38217  0.80368  0.42233  Biso   1.000  Ne
  He171    1.0000 0.41160  0.81478  0.40998  Biso   1.000  He
  He172    1.0000 0.40641  0.83086  0.37885  Biso   1.000  He
  Ne172    1.0000 0.43240  0.84752  0.36842  Biso   1.000  Ne
  Ne173    1.0000 0.80237  0.80358  0.92557  Biso   1.000  Ne
  He173    1.0000 0.80034  0.81579  0.89422  Biso   1.000  He
  He174    1.0000 0.77137  0.81383  0.88092  Biso   1.000  He
  Ne174    1.0000 0.76966  0.82197  0.84836  Biso   1.000  Ne
  Ne175    1.0000 0.80836  0.92368  0.09392  Biso   1.000  Ne
  He175    1.0000 0.82032  0.91372  0.12465  Biso   1.000  He
  He176    1.0000 0.82051  0.93488  0.14971  Biso   1.000  He
  Ne176    1.0000 0.84061  0.92288  0.17415  Biso   1.000  Ne
  Ne177    1.0000 0.08791  0.07586  0.15735  Biso   1.000  Ne
  He177    1.0000 0.10740  0.07539  0.13336  Biso   1.000  He
  He178    1.0000 0.13763  0.08754  0.13628  Biso   1.000  He
  Ne178    1.0000 0.15738  0.08896  0.11006  Biso   1.000  Ne
  Ne179    1.0000 0.01791  0.08783  0.06746  Biso   1.000  Ne
  He179    1.0000 0.01906  0.05666  0.07825  Biso   1.000  He
  He180    1.0000 0.04883  0.04303  0.08688  Biso   1.000  He
  Ne180    1.0000 0.04607  0.01355  0.10165  Biso   1.000  Ne
  Ne181    1.0000 0.72897  0.15898  0.62215  Biso   1.000  Ne
  He181    1.0000 0.71135  0.13106  0.60968  Biso   1.000  He
  He182    1.0000 0.72389  0.10065  0.61888  Biso   1.000  He
  Ne182    1.0000 0.70915  0.07582  0.60491  Biso   1.000  Ne
  Ne183    1.0000 0.88202  0.87684  0.09567  Biso   1.000  Ne
  He183    1.0000 0.89362  0.85021  0.08511  Biso   1.000  He
  He184    1.0000 0.91524  0.83556  0.10605  Biso   1.000  He
  Ne184    1.0000 0.92990  0.80764  0.09131  Biso   1.000  Ne
  Ne185    1.0000 0.48540  0.59180  0.00117  Biso   1.000  Ne
  He185    1.0000 0.48032  0.56468  0.02007  Biso   1.000  He
  He186    1.0000 0.45415  0.54300  0.01036  Biso   1.000  He
  Ne186    1.0000 0.46048  0.51118  0.01971  Biso   1.000  Ne
  Ne187    1.0000 0.58176  0.78392  0.61494  Biso   1.000  Ne
  He187    1.0000 0.61262  0.79520  0.60993  Biso   1.000  He
  He188    1.0000 0.61695  0.82597  0.61102  Biso   1.000  He
  Ne188    1.0000 0.64855  0.83848  0.60705  Biso   1.000  Ne
  Ne189    1.0000 0.36018  0.90471  0.60785  Biso   1.000  Ne
  He189    1.0000 0.39139  0.90980  0.59755  Biso   1.000  He
  He190    1.0000 0.40636  0.88353  0.58877  Biso   1.000  He
  Ne190    1.0000 0.42336  0.86722  0.61414  Biso   1.000  Ne
  Ne191    1.0000 0.90347  0.07845  0.25039  Biso   1.000  Ne
  He191    1.0000 0.87126  0.08187  0.24032  Biso   1.000  He
  He192    1.0000 0.86368  0.09477  0.21043  Biso   1.000  He
  Ne192    1.0000 0.83057  0.09915  0.20668  Biso   1.000  Ne
  Ne193    1.0000 0.89606  0.76582  0.89378  Biso   1.000  Ne
  He193    1.0000 0.90155  0.75278  0.86507  Biso   1.000  He
  He194    1.0000 0.93244  0.74157  0.86175  Biso   1.000  He
  Ne194    1.0000 0.94030  0.73166  0.83115  Biso   1.000  Ne
  Ne195    1.0000 0.10030  0.75779  0.08917  Biso   1.000  Ne
  He195    1.0000 0.10527  0.78410  0.11069  Biso   1.000  He
  He196    1.0000 0.08298  0.80410  0.10110  Biso   1.000  He
  Ne196    1.0000 0.08078  0.83261  0.11647  Biso   1.000  Ne
  Ne197    1.0000 0.56722  0.38898  0.96405  Biso   1.000  Ne
  He197    1.0000 0.56473  0.41647  0.94994  Biso   1.000  He
  He198    1.0000 0.59117  0.43696  0.95260  Biso   1.000  He
  Ne198    1.0000 0.58580  0.46896  0.94477  Biso   1.000  Ne
  Ne199    1.0000 0.05855  0.93588  0.31143  Biso   1.000  Ne
  He199    1.0000 0.02947  0.94893  0.31973  Biso   1.000  He
  He200    1.0000 0.03319  0.97826  0.33384  Biso   1.000  He
  Ne200    1.0000 0.00474  0.99227  0.33876  Biso   1.000  Ne
  Ne201    1.0000 0.43439  0.11270  0.76899  Biso   1.000  Ne
  He201    1.0000 0.41633  0.11765  0.74243  Biso   1.000  He
  He202    1.0000 0.38454  0.12121  0.74902  Biso   1.000  He
  Ne202    1.0000 0.37007  0.12399  0.72164  Biso   1.000  Ne
  Ne203    1.0000 0.71555  0.14552  0.75308  Biso   1.000  Ne
  He203    1.0000 0.74396  0.12924  0.76720  Biso   1.000  He
  He204    1.0000 0.77289  0.13518  0.74966  Biso   1.000  He
  Ne204    1.0000 0.79984  0.12784  0.76689  Biso   1.000  Ne
  Ne205    1.0000 0.66868  0.68208  0.09125  Biso   1.000  Ne
  He205    1.0000 0.70217  0.68046  0.10290  Biso   1.000  He
  He206    1.0000 0.70885  0.70958  0.11825  Biso   1.000  He
  Ne206    1.0000 0.74332  0.71038  0.12063  Biso   1.000  Ne
  Ne207    1.0000 0.33581  0.87649  0.34299  Biso   1.000  Ne
  He207    1.0000 0.32383  0.87619  0.37225  Biso   1.000  He
  He208    1.0000 0.31699  0.90622  0.38332  Biso   1.000  He
  Ne208    1.0000 0.30586  0.90575  0.41725  Biso   1.000  Ne
  Ne209    1.0000 0.09248  0.43254  0.53256  Biso   1.000  Ne
  He209    1.0000 0.08093  0.42493  0.50137  Biso   1.000  He
  He210    1.0000 0.06857  0.44999  0.48505  Biso   1.000  He
  Ne210    1.0000 0.04927  0.44387  0.45582  Biso   1.000  Ne
  Ne211    1.0000 0.16188  0.07216  0.94733  Biso   1.000  Ne
  He211    1.0000 0.16454  0.07012  0.91501  Biso   1.000  He
  He212    1.0000 0.19446  0.07637  0.90382  Biso   1.000  He
  Ne212    1.0000 0.19341  0.08364  0.87188  Biso   1.000  Ne
  Ne213    1.0000 0.68452  0.60580  0.19066  Biso   1.000  Ne
  He213    1.0000 0.69673  0.59743  0.16073  Biso   1.000  He
  He214    1.0000 0.67645  0.60063  0.13337  Biso   1.000  He
  Ne214    1.0000 0.69264  0.59221  0.10687  Biso   1.000  Ne
  Ne215    1.0000 0.91901  0.16048  0.15375  Biso   1.000  Ne
  He215    1.0000 0.91625  0.16235  0.18626  Biso   1.000  He
  He216    1.0000 0.89284  0.18430  0.19543  Biso   1.000  He
  Ne216    1.0000 0.88655  0.18234  0.22543  Biso   1.000  Ne
  Ne217    1.0000 0.58686  0.94102  0.40636  Biso   1.000  Ne
  He217    1.0000 0.59453  0.95066  0.43772  Biso   1.000  He
  He218    1.0000 0.57917  0.93447  0.46258  Biso   1.000  He
  Ne218    1.0000 0.58871  0.94450  0.49325  Biso   1.000  Ne
  Ne219    1.0000 0.80579  0.83035  0.12572  Biso   1.000  Ne
  He219    1.0000 0.77392  0.82937  0.11476  Biso   1.000  He
  He220    1.0000 0.77272  0.83540  0.08062  Biso   1.000  He
  Ne220    1.0000 0.73991  0.83534  0.07212  Biso   1.000  Ne
  Ne221    1.0000 0.68927  0.74848  0.38562  Biso   1.000  Ne
  He221    1.0000 0.67695  0.77395  0.40060  Biso   1.000  He
  He222    1.0000 0.69714  0.80151  0.40575  Biso   1.000  He
  Ne222    1.0000 0.67919  0.82600  0.42243  Biso   1.000  Ne
  Ne223    1.0000 0.56130  0.50960  0.11347  Biso   1.000  Ne
  He223    1.0000 0.55809  0.53494  0.09167  Biso   1.000  He
  He224    1.0000 0.56157  0.52079  0.05996  Biso   1.000  He
  Ne224    1.0000 0.56427  0.54079  0.03520  Biso   1.000  Ne
  Ne225    1.0000 0.40321  0.76773  0.60977  Biso   1.000  Ne
  He225    1.0000 0.37479  0.77741  0.62235  Biso   1.000  He
  He226    1.0000 0.37771  0.79097  0.65241  Biso   1.000  He
  Ne226    1.0000 0.34995  0.80048  0.66664  Biso   1.000  Ne
  Ne227    1.0000 0.69287  0.95109  0.77669  Biso   1.000  Ne
  He227    1.0000 0.70262  0.93009  0.75266  Biso   1.000  He
  He228    1.0000 0.70044  0.89699  0.76546  Biso   1.000  He
  Ne228    1.0000 0.70452  0.87499  0.74092  Biso   1.000  Ne
  Ne229    1.0000 0.90237  0.57631  0.34581  Biso   1.000  Ne
  He229    1.0000 0.91899  0.60444  0.34474  Biso   1.000  He
  He230    1.0000 0.90271  0.63302  0.34514  Biso   1.000  He
  Ne230    1.0000 0.91902  0.65834  0.34878  Biso   1.000  Ne
  Ne231    1.0000 0.25624  0.13911  0.13900  Biso   1.000  Ne
  He231    1.0000 0.23404  0.16584  0.13450  Biso   1.000  He
  He232    1.0000 0.20725  0.15692  0.12221  Biso   1.000  He
  Ne232    1.0000 0.18575  0.18086  0.12097  Biso   1.000  Ne
  Ne233    1.0000 0.08857  0.11826  0.95898  Biso   1.000  Ne
  He233    1.0000 0.07588  0.09243  0.97716  Biso   1.000  He
  He234    1.0000 0.05776  0.07137  0.95984  Biso   1.000  He
  Ne234    1.0000 0.03958  0.04723  0.97753  Biso   1.000  Ne
  Ne235    1.0000 0.79691  0.89262  0.86492  Biso   1.000  Ne
  He235    1.0000 0.78505  0.90916  0.89128  Biso   1.000  He
  He236    1.0000 0.80851  0.90871  0.91645  Biso   1.000  He
  Ne236    1.0000 0.79658  0.92035  0.94251  Biso   1.000  Ne
  Ne237    1.0000 0.91756  0.41527  0.66918  Biso   1.000  Ne
  He237    1.0000 0.91252  0.40643  0.70391  Biso   1.000  He
  He238    1.0000 0.91268  0.43239  0.72053  Biso   1.000  He
  Ne238    1.0000 0.90840  0.42440  0.75471  Biso   1.000  Ne
  Ne239    1.0000 0.74162  0.67687  0.94285  Biso   1.000  Ne
  He239    1.0000 0.77371  0.67997  0.94798  Biso   1.000  He
  He240    1.0000 0.78344  0.71022  0.94259  Biso   1.000  He
  Ne240    1.0000 0.81583  0.71874  0.95332  Biso   1.000  Ne
  Ne241    1.0000 0.09716  0.33408  0.60323  Biso   1.000  Ne
  He241    1.0000 0.09989  0.34626  0.63260  Biso   1.000  He
  He242    1.0000 0.09501  0.32138  0.65684  Biso   1.000  He
  Ne242    1.0000 0.09437  0.33246  0.68728  Biso   1.000  Ne
  Ne243    1.0000 0.50860  0.67052  0.48503  Biso   1.000  Ne
  He243    1.0000 0.47240  0.67066  0.48119  Biso   1.000  He
  He244    1.0000 0.46027  0.70238  0.48249  Biso   1.000  He
  Ne244    1.0000 0.45748  0.71696  0.45376  Biso   1.000  Ne
  Ne245    1.0000 0.43711  0.17221  0.68425  Biso   1.000  Ne
  He245    1.0000 0.44639  0.19584  0.66391  Biso   1.000  He
  He246    1.0000 0.43087  0.19271  0.63261  Biso   1.000  He
  Ne246    1.0000 0.44031  0.21419  0.61205  Biso   1.000  Ne
  Ne247    1.0000 0.15718  0.24626  0.65757  Biso   1.000  Ne
  He247    1.0000 0.13001  0.23058  0.67157  Biso   1.000  He
  He248    1.0000 0.10790  0.22094  0.64956  Biso   1.000  He
  Ne248    1.0000 0.08541  0.20271  0.66399  Biso   1.000  Ne
  Ne249    1.0000 0.67376  0.40255  0.93390  Biso   1.000  Ne
  He249    1.0000 0.66055  0.40055  0.90377  Biso   1.000  He
  He250    1.0000 0.67083  0.42655  0.88185  Biso   1.000  He
  Ne250    1.0000 0.68757  0.41563  0.85658  Biso   1.000  Ne
  Ne251    1.0000 0.67096  0.44292  0.29462  Biso   1.000  Ne
  He251    1.0000 0.66160  0.45137  0.32393  Biso   1.000  He
  He252    1.0000 0.62740  0.44324  0.33180  Biso   1.000  He
  Ne252    1.0000 0.61947  0.45623  0.36068  Biso   1.000  Ne
  Ne253    1.0000 0.61708  0.91365  0.26729  Biso   1.000  Ne
  He253    1.0000 0.65071  0.91600  0.27284  Biso   1.000  He
  He254    1.0000 0.66117  0.94666  0.26135  Biso   1.000  He
  Ne254    1.0000 0.69382  0.94673  0.26885  Biso   1.000  Ne
  Ne255    1.0000 0.96707  0.47845  0.58102  Biso   1.000  Ne
  He255    1.0000 0.97336  0.46322  0.55368  Biso   1.000  He
  He256    1.0000 0.95868  0.43190  0.55142  Biso   1.000  He
  Ne256    1.0000 0.96644  0.41455  0.52283  Biso   1.000  Ne
  Ne257    1.0000 0.34001  0.09101  0.27389  Biso   1.000  Ne
  He257    1.0000 0.36724  0.08121  0.29036  Biso   1.000  He
  He258    1.0000 0.36566  0.07354  0.32404  Biso   1.000  He
  Ne258    1.0000 0.39378  0.06617  0.34092  Biso   1.000  Ne
  Ne259    1.0000 0.62096  0.71676  0.87724  Biso   1.000  Ne
  He259    1.0000 0.60937  0.70853  0.90876  Biso   1.000  He
  He260    1.0000 0.61269  0.67806  0.91802  Biso   1.000  He
  Ne260    1.0000 0.60058  0.67107  0.94634  Biso   1.000  Ne
  Ne261    1.0000 0.56851  0.58652  0.19042  Biso   1.000  Ne
  He261    1.0000 0.58489  0.60321  0.16846  Biso   1.000  He
  He262    1.0000 0.56353  0.60494  0.14172  Biso   1.000  He
  Ne262    1.0000 0.57251  0.62537  0.11727  Biso   1.000  Ne
  Ne263    1.0000 0.56450  0.56987  0.92229  Biso   1.000  Ne
  He263    1.0000 0.59590  0.58069  0.92653  Biso   1.000  He
  He264    1.0000 0.60959  0.57119  0.95507  Biso   1.000  He
  Ne264    1.0000 0.64165  0.58467  0.95838  Biso   1.000  Ne
  Ne265    1.0000 0.55595  0.94227  0.58859  Biso   1.000  Ne
  He265    1.0000 0.57942  0.92135  0.59945  Biso   1.000  He
  He266    1.0000 0.61055  0.93569  0.59733  Biso   1.000  He
  Ne266    1.0000 0.63510  0.91194  0.60291  Biso   1.000  Ne
  Ne267    1.0000 0.79025  0.57330  0.62996  Biso   1.000  Ne
  He267    1.0000 0.81603  0.58993  0.64214  Biso   1.000  He
  He268    1.0000 0.84285  0.57292  0.63717  Biso   1.000  He
  Ne268    1.0000 0.86821  0.58718  0.65367  Biso   1.000  Ne
  Ne269    1.0000 0.33915  0.13403  0.62255  Biso   1.000  Ne
  He269    1.0000 0.30569  0.12430  0.62328  Biso   1.000  He
  He270    1.0000 0.29962  0.09565  0.64130  Biso   1.000  He
  Ne270    1.0000 0.26917  0.08351  0.63950  Biso   1.000  Ne
  Ne271    1.0000 0.46448  0.72650  0.35613  Biso   1.000  Ne
  He271    1.0000 0.47262  0.69676  0.35565  Biso   1.000  He
  He272    1.0000 0.50337  0.69101  0.36081  Biso   1.000  He
  Ne272    1.0000 0.51213  0.66083  0.34894  Biso   1.000  Ne
  Ne273    1.0000 0.40053  0.40509  0.23610  Biso   1.000  Ne
  He273    1.0000 0.38507  0.38032  0.21854  Biso   1.000  He
  He274    1.0000 0.35477  0.37531  0.22631  Biso   1.000  He
  Ne274    1.0000 0.34041  0.35085  0.20941  Biso   1.000  Ne
  Ne275    1.0000 0.09909  0.57842  0.35918  Biso   1.000  Ne
  He275    1.0000 0.08466  0.60672  0.37490  Biso   1.000  He
  He276    1.0000 0.08262  0.60539  0.40938  Biso   1.000  He
  Ne276    1.0000 0.07791  0.63153  0.42819  Biso   1.000  Ne
  Ne277    1.0000 0.96161  0.39593  0.45273  Biso   1.000  Ne
  He277    1.0000 0.93596  0.37517  0.46184  Biso   1.000  He
  He278    1.0000 0.93698  0.34716  0.44556  Biso   1.000  He
  Ne278    1.0000 0.90796  0.33354  0.44648  Biso   1.000  Ne
  Ne279    1.0000 0.97128  0.91809  0.04032  Biso   1.000  Ne
  He279    1.0000 0.98571  0.93799  0.05908  Biso   1.000  He
  He280    1.0000 0.96889  0.94246  0.08626  Biso   1.000  He
  Ne280    1.0000 0.98282  0.96010  0.10702  Biso   1.000  Ne
  Ne281    1.0000 0.10047  0.91900  0.94621  Biso   1.000  Ne
  He281    1.0000 0.08836  0.93353  0.97400  Biso   1.000  He
  He282    1.0000 0.06395  0.95129  0.96919  Biso   1.000  He
  Ne282    1.0000 0.05250  0.96812  0.99653  Biso   1.000  Ne
  Ne283    1.0000 0.40014  0.76166  0.08682  Biso   1.000  Ne
  He283    1.0000 0.39886  0.73253  0.10243  Biso   1.000  He
  He284    1.0000 0.42179  0.70950  0.09544  Biso   1.000  He
  Ne284    1.0000 0.41940  0.68487  0.11802  Biso   1.000  Ne
  Ne285    1.0000 0.08536  0.17837  0.88243  Biso   1.000  Ne
  He285    1.0000 0.10516  0.18739  0.90892  Biso   1.000  He
  He286    1.0000 0.09504  0.21302  0.92732  Biso   1.000  He
  Ne286    1.0000 0.12395  0.22368  0.94234  Biso   1.000  Ne
  Ne287    1.0000 0.50180  0.00890  0.59181  Biso   1.000  Ne
  He287    1.0000 0.51406  0.03749  0.59220  Biso   1.000  He
  He288    1.0000 0.50024  0.05688  0.57011  Biso   1.000  He
  Ne288    1.0000 0.51529  0.08662  0.56565  Biso   1.000  Ne
  Ne289    1.0000 0.38717  0.64244  0.77975  Biso   1.000  Ne
  He289    1.0000 0.39839  0.61221  0.78934  Biso   1.000  He
  He290    1.0000 0.43039  0.61057  0.79552  Biso   1.000  He
  Ne290    1.0000 0.43993  0.57765  0.80173  Biso   1.000  Ne
  Ne291    1.0000 0.29834  0.66327  0.48981  Biso   1.000  Ne
  He291    1.0000 0.29254  0.68011  0.46194  Biso   1.000  He
  He292    1.0000 0.25863  0.68179  0.45469  Biso   1.000  He
  Ne292    1.0000 0.25259  0.70377  0.43218  Biso   1.000  Ne
  Ne293    1.0000 0.41975  0.31204  0.18170  Biso   1.000  Ne
  He293    1.0000 0.41985  0.28076  0.16859  Biso   1.000  He
  He294    1.0000 0.40158  0.27915  0.13991  Biso   1.000  He
  Ne294    1.0000 0.40582  0.25007  0.12241  Biso   1.000  Ne
  Ne295    1.0000 0.13553  0.21392  0.81203  Biso   1.000  Ne
  He295    1.0000 0.10751  0.19539  0.80433  Biso   1.000  He
  He296    1.0000 0.10936  0.18176  0.77171  Biso   1.000  He
  Ne296    1.0000 0.08321  0.16518  0.76401  Biso   1.000  Ne
  Ne297    1.0000 0.46697  0.03901  0.44456  Biso   1.000  Ne
  He297    1.0000 0.45550  0.05198  0.47370  Biso   1.000  He
  He298    1.0000 0.42570  0.04456  0.48234  Biso   1.000  He
  Ne298    1.0000 0.42546  0.01681  0.50331  Biso   1.000  Ne
  Ne299    1.0000 0.88911  0.22696  0.85623  Biso   1.000  Ne
  He299    1.0000 0.91319  0.20476  0.86494  Biso   1.000  He
  He300    1.0000 0.90789  0.18493  0.89006  Biso   1.000  He
  Ne300    1.0000 0.93223  0.16308  0.89429  Biso   1.000  Ne
