data_image0
_cell_length_a       47.335
_cell_length_b       46.627
_cell_length_c       46.4854
_cell_angle_alpha    90
_cell_angle_beta     90
_cell_angle_gamma    90

_symmetry_space_group_name_H-M    "P 1"
_symmetry_int_tables_number       1

loop_
  _symmetry_equiv_pos_as_xyz
  'x, y, z'

loop_
  _atom_site_label
  _atom_site_occupancy
  _atom_site_fract_x
  _atom_site_fract_y
  _atom_site_fract_z
  _atom_site_thermal_displace_type
  _atom_site_B_iso_or_equiv
  _atom_site_type_symbol
  Ne1      1.0000 0.37244  0.31333  0.91631  Biso   1.000  Ne
  He1      1.0000 0.40037  0.30239  0.90437  Biso   1.000  He
  He2      1.0000 0.41199  0.27310  0.91285  Biso   1.000  He
  Ne2      1.0000 0.43958  0.26643  0.89254  Biso   1.000  Ne
  Ne3      1.0000 0.23158  0.06506  0.09085  Biso   1.000  Ne
  He3      1.0000 0.20364  0.06401  0.11243  Biso   1.000  He
  He4      1.0000 0.20446  0.07097  0.14545  Biso   1.000  He
  Ne4      1.0000 0.17499  0.06616  0.15957  Biso   1.000  Ne
  Ne5      1.0000 0.52342  0.56280  0.99084  Biso   1.000  Ne
  He5      1.0000 0.50412  0.54980  0.96557  Biso   1.000  He
  He6      1.0000 0.49379  0.57221  0.94180  Biso   1.000  He
  Ne6      1.0000 0.47622  0.55739  0.91726  Biso   1.000  Ne
  Ne7      1.0000 0.34049  0.09863  0.41564  Biso   1.000  Ne
  He7      1.0000 0.33974  0.07418  0.39158  Biso   1.000  He
  He8      1.0000 0.35009  0.08548  0.36259  Biso   1.000  He
  Ne8      1.0000 0.34829  0.06385  0.33787  Biso   1.000  Ne
  Ne9      1.0000 0.42635  0.54313  0.03528  Biso   1.000  Ne
  He9      1.0000 0.44935  0.53247  0.05549  Biso   1.000  He
  He10     1.0000 0.45506  0.54593  0.08538  Biso   1.000  He
  Ne10     1.0000 0.47913  0.53006  0.10347  Biso   1.000  Ne
  Ne11     1.0000 0.59622  0.15783  0.71112  Biso   1.000  Ne
  He11     1.0000 0.59963  0.13095  0.69355  Biso   1.000  He
  He12     1.0000 0.58800  0.10527  0.70956  Biso   1.000  He
  Ne12     1.0000 0.59444  0.07757  0.69127  Biso   1.000  Ne
  Ne13     1.0000 0.34449  0.59188  0.84392  Biso   1.000  Ne
  He13     1.0000 0.35369  0.58120  0.87471  Biso   1.000  He
  He14     1.0000 0.34681  0.60388  0.89554  Biso   1.000  He
  Ne14     1.0000 0.35497  0.59501  0.92761  Biso   1.000  Ne
  Ne15     1.0000 0.51320  0.94573  0.46933  Biso   1.000  Ne
  He15     1.0000 0.54655  0.94887  0.46494  Biso   1.000  He
  He16     1.0000 0.55896  0.97805  0.45951  Biso   1.000  He
  Ne16     1.0000 0.59090  0.97736  0.45708  Biso   1.000  Ne
  Ne17     1.0000 0.24254  0.01600  0.31633  Biso   1.000  Ne
  He17     1.0000 0.24980  0.04801  0.31792  Biso   1.000  He
  He18     1.0000 0.23561  0.06259  0.34525  Biso   1.000  He
  Ne18     1.0000 0.25225  0.08883  0.35167  Biso   1.000  Ne
  Ne19     1.0000 0.42968  0.16198  0.77624  Biso   1.000  Ne
  He19     1.0000 0.42800  0.13067  0.78168  Biso   1.000  He
  He20     1.0000 0.45853  0.11868  0.77960  Biso   1.000  He
  Ne20     1.0000 0.45595  0.08467  0.78375  Biso   1.000  Ne
  Ne21     1.0000 0.99098  0.97620  0.09377  Biso   1.000  Ne
  He21     1.0000 0.00469  0.96157  0.06606  Biso   1.000  He
  He22     1.0000 0.01972  0.98481  0.04506  Biso   1.000  He
  Ne22     1.0000 0.03479  0.97083  0.01636  Biso   1.000  Ne
  Ne23     1.0000 0.63542  0.77692  0.59592  Biso   1.000  Ne
  He23     1.0000 0.63029  0.75651  0.61804  Biso   1.000  He
  He24     1.0000 0.62991  0.72475  0.60958  Biso   1.000  He
  Ne24     1.0000 0.62228  0.70237  0.63336  Biso   1.000  Ne
  Ne25     1.0000 0.68741  0.25676  0.90131  Biso   1.000  Ne
  He25     1.0000 0.66539  0.25056  0.87470  Biso   1.000  He
  He26     1.0000 0.63525  0.26843  0.87234  Biso   1.000  He
  Ne26     1.0000 0.61761  0.25983  0.84469  Biso   1.000  Ne
  Ne27     1.0000 0.61726  0.57354  0.74409  Biso   1.000  Ne
  He27     1.0000 0.59962  0.59469  0.76481  Biso   1.000  He
  He28     1.0000 0.61937  0.60954  0.78813  Biso   1.000  He
  Ne28     1.0000 0.60594  0.63538  0.80384  Biso   1.000  Ne
  Ne29     1.0000 0.58235  0.24598  0.93226  Biso   1.000  Ne
  He29     1.0000 0.56664  0.23062  0.95725  Biso   1.000  He
  He30     1.0000 0.53624  0.21723  0.94705  Biso   1.000  He
  Ne30     1.0000 0.51843  0.20330  0.97091  Biso   1.000  Ne
  Ne31     1.0000 0.30660  0.85493  0.19926  Biso   1.000  Ne
  He31     1.0000 0.33101  0.86668  0.21933  Biso   1.000  He
  He32     1.0000 0.33268  0.90136  0.22378  Biso   1.000  He
  Ne32     1.0000 0.35269  0.91291  0.24328  Biso   1.000  Ne
  Ne33     1.0000 0.92588  0.09805  0.08602  Biso   1.000  Ne
  He33     1.0000 0.94852  0.07172  0.08307  Biso   1.000  He
  He34     1.0000 0.93333  0.04877  0.06435  Biso   1.000  He
  Ne34     1.0000 0.94622  0.04750  0.03224  Biso   1.000  Ne
  Ne35     1.0000 0.95637  0.88706  0.09775  Biso   1.000  Ne
  He35     1.0000 0.94536  0.90016  0.06783  Biso   1.000  He
  He36     1.0000 0.93139  0.92638  0.07711  Biso   1.000  He
  Ne36     1.0000 0.91828  0.94125  0.05160  Biso   1.000  Ne
  Ne37     1.0000 0.18381  0.07795  0.93006  Biso   1.000  Ne
  He37     1.0000 0.15338  0.08660  0.91408  Biso   1.000  He
  He38     1.0000 0.14546  0.11741  0.90928  Biso   1.000  He
  Ne38     1.0000 0.11829  0.12144  0.89353  Biso   1.000  Ne
  Ne39     1.0000 0.68675  0.42458  0.92359  Biso   1.000  Ne
  He39     1.0000 0.67363  0.42511  0.89245  Biso   1.000  He
  He40     1.0000 0.69544  0.41684  0.86816  Biso   1.000  He
  Ne40     1.0000 0.68328  0.40969  0.83648  Biso   1.000  Ne
  Ne41     1.0000 0.99634  0.42386  0.54086  Biso   1.000  Ne
  He41     1.0000 0.02702  0.43082  0.53453  Biso   1.000  He
  He42     1.0000 0.04721  0.40680  0.54632  Biso   1.000  He
  Ne42     1.0000 0.07558  0.40848  0.53547  Biso   1.000  Ne
  Ne43     1.0000 0.22592  0.14683  0.22237  Biso   1.000  Ne
  He43     1.0000 0.20798  0.11612  0.23041  Biso   1.000  He
  He44     1.0000 0.22396  0.08776  0.22481  Biso   1.000  He
  Ne44     1.0000 0.21300  0.05964  0.23524  Biso   1.000  Ne
  Ne45     1.0000 0.63490  0.90851  0.44288  Biso   1.000  Ne
  He45     1.0000 0.61899  0.88347  0.42640  Biso   1.000  He
  He46     1.0000 0.58563  0.88219  0.42627  Biso   1.000  He
  Ne46     1.0000 0.57671  0.86501  0.45342  Biso   1.000  Ne
  Ne47     1.0000 0.44756  0.10966  0.61065  Biso   1.000  Ne
  He47     1.0000 0.42787  0.12562  0.58700  Biso   1.000  He
  He48     1.0000 0.42658  0.15966  0.58751  Biso   1.000  He
  Ne48     1.0000 0.41184  0.17318  0.56188  Biso   1.000  Ne
  Ne49     1.0000 0.66457  0.06346  0.40584  Biso   1.000  Ne
  He49     1.0000 0.63548  0.07313  0.41777  Biso   1.000  He
  He50     1.0000 0.61167  0.05902  0.40373  Biso   1.000  He
  Ne50     1.0000 0.58145  0.06886  0.41396  Biso   1.000  Ne
  Ne51     1.0000 0.63550  0.27012  0.09272  Biso   1.000  Ne
  He51     1.0000 0.64547  0.30337  0.09004  Biso   1.000  He
  He52     1.0000 0.67558  0.30640  0.10196  Biso   1.000  He
  Ne52     1.0000 0.68821  0.33739  0.09706  Biso   1.000  Ne
  Ne53     1.0000 0.17212  0.90335  0.06208  Biso   1.000  Ne
  He53     1.0000 0.14259  0.91445  0.06281  Biso   1.000  He
  He54     1.0000 0.11493  0.89564  0.05897  Biso   1.000  He
  Ne54     1.0000 0.08872  0.91367  0.05737  Biso   1.000  Ne
  Ne55     1.0000 0.69087  0.84784  0.60793  Biso   1.000  Ne
  He55     1.0000 0.71487  0.86246  0.58821  Biso   1.000  He
  He56     1.0000 0.71359  0.89456  0.59051  Biso   1.000  He
  Ne56     1.0000 0.74021  0.90953  0.57242  Biso   1.000  Ne
  Ne57     1.0000 0.42232  0.45318  0.07242  Biso   1.000  Ne
  He57     1.0000 0.43402  0.42208  0.06352  Biso   1.000  He
  He58     1.0000 0.46756  0.41737  0.06809  Biso   1.000  He
  Ne58     1.0000 0.48327  0.39334  0.04977  Biso   1.000  Ne
  Ne59     1.0000 0.11758  0.73149  0.06375  Biso   1.000  Ne
  He59     1.0000 0.10204  0.75915  0.07780  Biso   1.000  He
  He60     1.0000 0.12428  0.77975  0.08884  Biso   1.000  He
  Ne60     1.0000 0.11063  0.79884  0.11568  Biso   1.000  Ne
  Ne61     1.0000 0.91880  0.11102  0.83326  Biso   1.000  Ne
  He61     1.0000 0.90196  0.09583  0.81046  Biso   1.000  He
  He62     1.0000 0.90256  0.06075  0.81095  Biso   1.000  He
  Ne62     1.0000 0.88663  0.04761  0.78418  Biso   1.000  Ne
  Ne63     1.0000 0.36230  0.88752  0.42257  Biso   1.000  Ne
  He63     1.0000 0.33192  0.88641  0.40915  Biso   1.000  He
  He64     1.0000 0.32720  0.89015  0.37479  Biso   1.000  He
  Ne64     1.0000 0.29545  0.89944  0.36621  Biso   1.000  Ne
  Ne65     1.0000 0.63733  0.90489  0.63032  Biso   1.000  Ne
  He65     1.0000 0.61092  0.91242  0.61047  Biso   1.000  He
  He66     1.0000 0.58438  0.89608  0.62095  Biso   1.000  He
  Ne66     1.0000 0.56354  0.88893  0.59693  Biso   1.000  Ne
  Ne67     1.0000 0.86730  0.30232  0.40821  Biso   1.000  Ne
  He67     1.0000 0.86107  0.33427  0.40029  Biso   1.000  He
  He68     1.0000 0.83781  0.35069  0.41981  Biso   1.000  He
  Ne68     1.0000 0.83895  0.38272  0.41511  Biso   1.000  Ne
  Ne69     1.0000 0.41744  0.81730  0.60749  Biso   1.000  Ne
  He69     1.0000 0.39430  0.82052  0.58505  Biso   1.000  He
  He70     1.0000 0.36592  0.83096  0.59933  Biso   1.000  He
  Ne70     1.0000 0.33904  0.82959  0.58211  Biso   1.000  Ne
  Ne71     1.0000 0.89709  0.14800  0.91513  Biso   1.000  Ne
  He71     1.0000 0.87816  0.12374  0.92523  Biso   1.000  He
  He72     1.0000 0.86573  0.10155  0.90277  Biso   1.000  He
  Ne72     1.0000 0.85870  0.07272  0.91581  Biso   1.000  Ne
  Ne73     1.0000 0.41679  0.43184  0.89455  Biso   1.000  Ne
  He73     1.0000 0.41478  0.43392  0.92671  Biso   1.000  He
  He74     1.0000 0.43431  0.45705  0.94244  Biso   1.000  He
  Ne74     1.0000 0.43413  0.45637  0.97408  Biso   1.000  Ne
  Ne75     1.0000 0.21447  0.02595  0.43213  Biso   1.000  Ne
  He75     1.0000 0.22941  0.04321  0.45721  Biso   1.000  He
  He76     1.0000 0.20767  0.06063  0.47729  Biso   1.000  He
  Ne76     1.0000 0.21808  0.08743  0.49389  Biso   1.000  Ne
  Ne77     1.0000 0.92793  0.81457  0.88807  Biso   1.000  Ne
  He77     1.0000 0.93546  0.83254  0.85922  Biso   1.000  He
  He78     1.0000 0.90875  0.84896  0.84517  Biso   1.000  He
  Ne78     1.0000 0.91815  0.86721  0.81709  Biso   1.000  Ne
  Ne79     1.0000 0.35747  0.11490  0.24002  Biso   1.000  Ne
  He79     1.0000 0.38828  0.12188  0.24657  Biso   1.000  He
  He80     1.0000 0.40883  0.09647  0.24696  Biso   1.000  He
  Ne80     1.0000 0.43916  0.09676  0.25020  Biso   1.000  Ne
  Ne81     1.0000 0.22498  0.40826  0.43467  Biso   1.000  Ne
  He81     1.0000 0.19303  0.40228  0.42265  Biso   1.000  He
  He82     1.0000 0.17640  0.37734  0.43767  Biso   1.000  He
  Ne82     1.0000 0.14876  0.36960  0.42222  Biso   1.000  Ne
  Ne83     1.0000 0.91060  0.68142  0.41387  Biso   1.000  Ne
  He83     1.0000 0.91643  0.67841  0.38157  Biso   1.000  He
  He84     1.0000 0.89493  0.69757  0.36175  Biso   1.000  He
  Ne84     1.0000 0.90019  0.69253  0.33027  Biso   1.000  Ne
  Ne85     1.0000 0.65588  0.42127  0.09919  Biso   1.000  Ne
  He85     1.0000 0.62403  0.41307  0.08863  Biso   1.000  He
  He86     1.0000 0.62057  0.38316  0.07581  Biso   1.000  He
  Ne86     1.0000 0.59110  0.37142  0.07107  Biso   1.000  Ne
  Ne87     1.0000 0.67227  0.58337  0.22135  Biso   1.000  Ne
  He87     1.0000 0.64904  0.59374  0.19990  Biso   1.000  He
  He88     1.0000 0.62046  0.57778  0.19841  Biso   1.000  He
  Ne88     1.0000 0.59966  0.58847  0.17382  Biso   1.000  Ne
  Ne89     1.0000 0.21127  0.57447  0.64845  Biso   1.000  Ne
  He89     1.0000 0.21359  0.60661  0.63518  Biso   1.000  He
  He90     1.0000 0.21294  0.60568  0.60281  Biso   1.000  He
  Ne90     1.0000 0.21512  0.63377  0.58564  Biso   1.000  Ne
  Ne91     1.0000 0.26510  0.11612  0.56567  Biso   1.000  Ne
  He91     1.0000 0.25113  0.14005  0.57942  Biso   1.000  He
  He92     1.0000 0.25301  0.16535  0.55901  Biso   1.000  He
  Ne92     1.0000 0.23272  0.19282  0.56618  Biso   1.000  Ne
  Ne93     1.0000 0.83850  0.90465  0.10346  Biso   1.000  Ne
  He93     1.0000 0.85194  0.89026  0.12970  Biso   1.000  He
  He94     1.0000 0.85483  0.90841  0.15648  Biso   1.000  He
  Ne94     1.0000 0.86978  0.89081  0.18140  Biso   1.000  Ne
  Ne95     1.0000 0.59440  0.59869  0.94845  Biso   1.000  Ne
  He95     1.0000 0.61631  0.59325  0.92267  Biso   1.000  He
  He96     1.0000 0.60368  0.58107  0.89313  Biso   1.000  He
  Ne96     1.0000 0.62476  0.58283  0.86826  Biso   1.000  Ne
  Ne97     1.0000 0.16207  0.91469  0.82759  Biso   1.000  Ne
  He97     1.0000 0.15347  0.92109  0.85540  Biso   1.000  He
  He98     1.0000 0.16508  0.89773  0.87582  Biso   1.000  He
  Ne98     1.0000 0.16278  0.90593  0.90842  Biso   1.000  Ne
  Ne99     1.0000 0.59445  0.50453  0.02015  Biso   1.000  Ne
  He99     1.0000 0.56760  0.49417  0.03636  Biso   1.000  He
  He100    1.0000 0.57216  0.47801  0.06443  Biso   1.000  He
  Ne100    1.0000 0.54690  0.46004  0.07806  Biso   1.000  Ne
  Ne101    1.0000 0.22272  0.40615  0.63602  Biso   1.000  Ne
  He101    1.0000 0.24527  0.40150  0.61322  Biso   1.000  He
  He102    1.0000 0.23653  0.37533  0.59542  Biso   1.000  He
  Ne102    1.0000 0.25937  0.36290  0.57357  Biso   1.000  Ne
  Ne103    1.0000 0.03764  0.06294  0.06372  Biso   1.000  Ne
  He103    1.0000 0.06598  0.07929  0.07077  Biso   1.000  He
  He104    1.0000 0.09289  0.06830  0.05616  Biso   1.000  He
  Ne104    1.0000 0.12058  0.08357  0.06305  Biso   1.000  Ne
  Ne105    1.0000 0.61802  0.17503  0.40468  Biso   1.000  Ne
  He105    1.0000 0.60909  0.15280  0.38092  Biso   1.000  He
  He106    1.0000 0.61984  0.15837  0.35029  Biso   1.000  He
  Ne106    1.0000 0.64335  0.13251  0.34003  Biso   1.000  Ne
  Ne107    1.0000 0.40125  0.42637  0.71590  Biso   1.000  Ne
  He107    1.0000 0.40125  0.42015  0.75062  Biso   1.000  He
  He108    1.0000 0.42904  0.42107  0.76518  Biso   1.000  He
  Ne108    1.0000 0.42457  0.41085  0.79751  Biso   1.000  Ne
  Ne109    1.0000 0.65649  0.87613  0.21865  Biso   1.000  Ne
  He109    1.0000 0.63590  0.87401  0.24532  Biso   1.000  He
  He110    1.0000 0.63264  0.90093  0.26275  Biso   1.000  He
  Ne110    1.0000 0.61432  0.89777  0.28912  Biso   1.000  Ne
  Ne111    1.0000 0.10079  0.86822  0.84506  Biso   1.000  Ne
  He111    1.0000 0.09325  0.84809  0.86965  Biso   1.000  He
  He112    1.0000 0.08388  0.86582  0.89552  Biso   1.000  He
  Ne112    1.0000 0.08046  0.84861  0.92363  Biso   1.000  Ne
  Ne113    1.0000 0.71911  0.42138  0.19213  Biso   1.000  Ne
  He113    1.0000 0.73440  0.43163  0.16624  Biso   1.000  He
  He114    1.0000 0.72777  0.41451  0.13796  Biso   1.000  He
  Ne114    1.0000 0.74388  0.42525  0.11037  Biso   1.000  Ne
  Ne115    1.0000 0.40217  0.85291  0.23345  Biso   1.000  Ne
  He115    1.0000 0.39876  0.81925  0.23593  Biso   1.000  He
  He116    1.0000 0.42295  0.80062  0.22504  Biso   1.000  He
  Ne116    1.0000 0.41478  0.76806  0.22584  Biso   1.000  Ne
  Ne117    1.0000 0.35360  0.39874  0.11009  Biso   1.000  Ne
  He117    1.0000 0.37264  0.38621  0.13318  Biso   1.000  He
  He118    1.0000 0.39939  0.39824  0.13668  Biso   1.000  He
  Ne118    1.0000 0.41398  0.37950  0.16176  Biso   1.000  Ne
  Ne119    1.0000 0.89723  0.43564  0.67731  Biso   1.000  Ne
  He119    1.0000 0.86593  0.43662  0.66413  Biso   1.000  He
  He120    1.0000 0.86621  0.42203  0.63323  Biso   1.000  He
  Ne120    1.0000 0.83786  0.42535  0.61435  Biso   1.000  Ne
  Ne121    1.0000 0.58955  0.20766  0.56567  Biso   1.000  Ne
  He121    1.0000 0.61919  0.19049  0.56723  Biso   1.000  He
  He122    1.0000 0.62145  0.17002  0.59441  Biso   1.000  He
  Ne122    1.0000 0.64801  0.15202  0.59506  Biso   1.000  Ne
  Ne123    1.0000 0.83138  0.62214  0.60153  Biso   1.000  Ne
  He123    1.0000 0.84689  0.60491  0.57662  Biso   1.000  He
  He124    1.0000 0.87526  0.58903  0.58450  Biso   1.000  He
  Ne124    1.0000 0.89370  0.58027  0.55864  Biso   1.000  Ne
  Ne125    1.0000 0.43868  0.60223  0.24129  Biso   1.000  Ne
  He125    1.0000 0.41829  0.57604  0.23353  Biso   1.000  He
  He126    1.0000 0.40130  0.58121  0.20581  Biso   1.000  He
  Ne126    1.0000 0.38069  0.55712  0.19464  Biso   1.000  Ne
  Ne127    1.0000 0.43359  0.05050  0.35305  Biso   1.000  Ne
  He127    1.0000 0.44513  0.05485  0.38300  Biso   1.000  He
  He128    1.0000 0.42662  0.04775  0.40593  Biso   1.000  He
  Ne128    1.0000 0.44228  0.05203  0.43500  Biso   1.000  Ne
  Ne129    1.0000 0.43223  0.33396  0.07116  Biso   1.000  Ne
  He129    1.0000 0.43080  0.30017  0.07211  Biso   1.000  He
  He130    1.0000 0.40050  0.28709  0.07901  Biso   1.000  He
  Ne130    1.0000 0.40033  0.25417  0.08286  Biso   1.000  Ne
  Ne131    1.0000 0.45378  0.70837  0.93543  Biso   1.000  Ne
  He131    1.0000 0.43189  0.68680  0.92416  Biso   1.000  He
  He132    1.0000 0.40091  0.69569  0.93018  Biso   1.000  He
  Ne132    1.0000 0.37842  0.67303  0.92219  Biso   1.000  Ne
  Ne133    1.0000 0.43725  0.60588  0.78805  Biso   1.000  Ne
  He133    1.0000 0.43794  0.62811  0.81344  Biso   1.000  He
  He134    1.0000 0.40719  0.63470  0.82236  Biso   1.000  He
  Ne134    1.0000 0.40578  0.65963  0.84393  Biso   1.000  Ne
  Ne135    1.0000 0.85464  0.84654  0.94481  Biso   1.000  Ne
  He135    1.0000 0.83679  0.82008  0.93275  Biso   1.000  He
  He136    1.0000 0.84057  0.81850  0.89973  Biso   1.000  He
  Ne136    1.0000 0.82265  0.79786  0.88646  Biso   1.000  Ne
  Ne137    1.0000 0.37305  0.92407  0.67721  Biso   1.000  Ne
  He137    1.0000 0.37869  0.92146  0.64645  Biso   1.000  He
  He138    1.0000 0.40986  0.92239  0.63633  Biso   1.000  He
  Ne138    1.0000 0.40963  0.92018  0.60415  Biso   1.000  Ne
  Ne139    1.0000 0.11214  0.17433  0.08999  Biso   1.000  Ne
  He139    1.0000 0.10479  0.14927  0.11029  Biso   1.000  He
  He140    1.0000 0.12334  0.14326  0.13506  Biso   1.000  He
  Ne140    1.0000 0.11654  0.11685  0.15207  Biso   1.000  Ne
  Ne141    1.0000 0.43086  0.80849  0.31009  Biso   1.000  Ne
  He141    1.0000 0.43561  0.84075  0.30612  Biso   1.000  He
  He142    1.0000 0.41676  0.85966  0.32811  Biso   1.000  He
  Ne142    1.0000 0.41373  0.89260  0.32292  Biso   1.000  Ne
  Ne143    1.0000 0.43079  0.02961  0.54507  Biso   1.000  Ne
  He143    1.0000 0.46521  0.03405  0.55158  Biso   1.000  He
  He144    1.0000 0.48456  0.00695  0.53987  Biso   1.000  He
  Ne144    1.0000 0.51546  0.00582  0.55169  Biso   1.000  Ne
  Ne145    1.0000 0.08656  0.38949  0.37388  Biso   1.000  Ne
  He145    1.0000 0.07995  0.41350  0.39799  Biso   1.000  He
  He146    1.0000 0.07821  0.40057  0.42832  Biso   1.000  He
  Ne146    1.0000 0.06679  0.42410  0.45184  Biso   1.000  Ne
  Ne147    1.0000 0.85435  0.62926  0.82628  Biso   1.000  Ne
  He147    1.0000 0.83061  0.62811  0.80116  Biso   1.000  He
  He148    1.0000 0.80548  0.60828  0.80912  Biso   1.000  He
  Ne148    1.0000 0.78648  0.60596  0.78506  Biso   1.000  Ne
  Ne149    1.0000 0.14794  0.67411  0.36135  Biso   1.000  Ne
  He149    1.0000 0.12606  0.66802  0.38535  Biso   1.000  He
  He150    1.0000 0.13326  0.68475  0.41568  Biso   1.000  He
  Ne150    1.0000 0.10741  0.68065  0.43759  Biso   1.000  Ne
  Ne151    1.0000 0.79549  0.90313  0.84128  Biso   1.000  Ne
  He151    1.0000 0.82829  0.90507  0.85046  Biso   1.000  He
  He152    1.0000 0.83424  0.91160  0.88337  Biso   1.000  He
  Ne152    1.0000 0.86843  0.91076  0.88964  Biso   1.000  Ne
  Ne153    1.0000 0.65038  0.38958  0.16721  Biso   1.000  Ne
  He153    1.0000 0.63707  0.36166  0.15293  Biso   1.000  He
  He154    1.0000 0.60771  0.35245  0.16792  Biso   1.000  He
  Ne154    1.0000 0.59649  0.32339  0.15638  Biso   1.000  Ne
  Ne155    1.0000 0.92486  0.42435  0.41228  Biso   1.000  Ne
  He155    1.0000 0.93250  0.42707  0.44385  Biso   1.000  He
  He156    1.0000 0.93659  0.45640  0.45615  Biso   1.000  He
  Ne156    1.0000 0.94131  0.45719  0.48886  Biso   1.000  Ne
  Ne157    1.0000 0.76704  0.65358  0.93666  Biso   1.000  Ne
  He157    1.0000 0.73802  0.65178  0.95037  Biso   1.000  He
  He158    1.0000 0.71142  0.64587  0.92976  Biso   1.000  He
  Ne158    1.0000 0.68442  0.64209  0.94581  Biso   1.000  Ne
  Ne159    1.0000 0.68853  0.58663  0.11531  Biso   1.000  Ne
  He159    1.0000 0.67373  0.61467  0.10718  Biso   1.000  He
  He160    1.0000 0.66808  0.63394  0.13564  Biso   1.000  He
  Ne160    1.0000 0.65664  0.66353  0.13022  Biso   1.000  Ne
  Ne161    1.0000 0.98027  0.56564  0.49055  Biso   1.000  Ne
  He161    1.0000 0.96633  0.55991  0.46275  Biso   1.000  He
  He162    1.0000 0.94660  0.58579  0.45145  Biso   1.000  He
  Ne162    1.0000 0.93714  0.58258  0.41696  Biso   1.000  Ne
  Ne163    1.0000 0.55273  0.54669  0.09916  Biso   1.000  Ne
  He163    1.0000 0.57989  0.56142  0.09236  Biso   1.000  He
  He164    1.0000 0.57623  0.59624  0.08893  Biso   1.000  He
  Ne164    1.0000 0.60113  0.61383  0.08575  Biso   1.000  Ne
  Ne165    1.0000 0.13708  0.55233  0.31888  Biso   1.000  Ne
  He165    1.0000 0.13643  0.57493  0.34439  Biso   1.000  He
  He166    1.0000 0.11561  0.56465  0.36836  Biso   1.000  He
  Ne166    1.0000 0.10285  0.58693  0.39060  Biso   1.000  Ne
  Ne167    1.0000 0.90229  0.38075  0.33187  Biso   1.000  Ne
  He167    1.0000 0.92921  0.36121  0.33204  Biso   1.000  He
  He168    1.0000 0.92224  0.33053  0.34295  Biso   1.000  He
  Ne168    1.0000 0.94729  0.31279  0.34504  Biso   1.000  Ne
  Ne169    1.0000 0.93518  0.92195  0.95972  Biso   1.000  Ne
  He169    1.0000 0.96150  0.93661  0.94256  Biso   1.000  He
  He170    1.0000 0.95719  0.96904  0.93868  Biso   1.000  He
  Ne170    1.0000 0.97998  0.98126  0.92101  Biso   1.000  Ne
  Ne171    1.0000 0.36054  0.57978  0.10387  Biso   1.000  Ne
  He171    1.0000 0.38455  0.60053  0.11161  Biso   1.000  He
  He172    1.0000 0.39362  0.61705  0.08459  Biso   1.000  He
  Ne172    1.0000 0.41949  0.63817  0.08887  Biso   1.000  Ne
  Ne173    1.0000 0.79630  0.78281  0.58942  Biso   1.000  Ne
  He173    1.0000 0.76675  0.78420  0.60019  Biso   1.000  He
  He174    1.0000 0.74536  0.76089  0.58695  Biso   1.000  He
  Ne174    1.0000 0.71354  0.76548  0.59379  Biso   1.000  Ne
  Ne175    1.0000 0.98686  0.58337  0.59339  Biso   1.000  Ne
  He175    1.0000 0.96989  0.55591  0.58056  Biso   1.000  He
  He176    1.0000 0.98284  0.52942  0.58570  Biso   1.000  He
  Ne176    1.0000 0.96620  0.50318  0.57292  Biso   1.000  Ne
  Ne177    1.0000 0.43706  0.13567  0.41694  Biso   1.000  Ne
  He177    1.0000 0.43297  0.15048  0.38824  Biso   1.000  He
  He178    1.0000 0.41439  0.13148  0.36856  Biso   1.000  He
  Ne178    1.0000 0.40902  0.13699  0.33604  Biso   1.000  Ne
  Ne179    1.0000 0.33276  0.10144  0.64833  Biso   1.000  Ne
  He179    1.0000 0.32976  0.10456  0.61598  Biso   1.000  He
  He180    1.0000 0.35078  0.08163  0.59985  Biso   1.000  He
  Ne180    1.0000 0.35007  0.07980  0.56583  Biso   1.000  Ne
  Ne181    1.0000 0.60713  0.35195  0.76113  Biso   1.000  Ne
  He181    1.0000 0.59406  0.37873  0.77748  Biso   1.000  He
  He182    1.0000 0.60347  0.38079  0.80935  Biso   1.000  He
  Ne182    1.0000 0.59675  0.40939  0.82468  Biso   1.000  Ne
  Ne183    1.0000 0.91813  0.30523  0.57075  Biso   1.000  Ne
  He183    1.0000 0.91016  0.33636  0.57770  Biso   1.000  He
  He184    1.0000 0.92279  0.36004  0.56061  Biso   1.000  He
  Ne184    1.0000 0.91303  0.38976  0.57725  Biso   1.000  Ne
  Ne185    1.0000 0.77153  0.35731  0.93412  Biso   1.000  Ne
  He185    1.0000 0.74136  0.34476  0.93938  Biso   1.000  He
  He186    1.0000 0.71830  0.35470  0.91767  Biso   1.000  He
  Ne186    1.0000 0.68861  0.33818  0.92361  Biso   1.000  Ne
  Ne187    1.0000 0.03799  0.56051  0.43405  Biso   1.000  Ne
  He187    1.0000 0.05559  0.53376  0.44553  Biso   1.000  He
  He188    1.0000 0.06215  0.54076  0.47569  Biso   1.000  He
  Ne188    1.0000 0.08164  0.51722  0.48838  Biso   1.000  Ne
  Ne189    1.0000 0.10358  0.32946  0.58740  Biso   1.000  Ne
  He189    1.0000 0.11567  0.35441  0.60744  Biso   1.000  He
  He190    1.0000 0.12105  0.38628  0.59572  Biso   1.000  He
  Ne190    1.0000 0.13230  0.40642  0.62164  Biso   1.000  Ne
  Ne191    1.0000 0.90544  0.71840  0.64074  Biso   1.000  Ne
  He191    1.0000 0.93821  0.72670  0.63891  Biso   1.000  He
  He192    1.0000 0.94746  0.75472  0.65665  Biso   1.000  He
  Ne192    1.0000 0.97998  0.76320  0.65195  Biso   1.000  Ne
  Ne193    1.0000 0.09152  0.03719  0.94713  Biso   1.000  Ne
  He193    1.0000 0.05945  0.04439  0.94923  Biso   1.000  He
  He194    1.0000 0.05079  0.07154  0.96292  Biso   1.000  He
  Ne194    1.0000 0.01921  0.06841  0.97577  Biso   1.000  Ne
  Ne195    1.0000 0.58824  0.37533  0.91206  Biso   1.000  Ne
  He195    1.0000 0.58085  0.40807  0.91323  Biso   1.000  He
  He196    1.0000 0.55101  0.41547  0.92772  Biso   1.000  He
  Ne196    1.0000 0.54654  0.44456  0.93714  Biso   1.000  Ne
  Ne197    1.0000 0.08415  0.52024  0.56976  Biso   1.000  Ne
  He197    1.0000 0.09458  0.54802  0.58389  Biso   1.000  He
  He198    1.0000 0.09025  0.57528  0.56845  Biso   1.000  He
  Ne198    1.0000 0.10170  0.60116  0.58259  Biso   1.000  Ne
  Ne199    1.0000 0.98699  0.77323  0.36344  Biso   1.000  Ne
  He199    1.0000 0.96105  0.78676  0.34879  Biso   1.000  He
  He200    1.0000 0.96935  0.81551  0.33175  Biso   1.000  He
  Ne200    1.0000 0.94497  0.83171  0.31670  Biso   1.000  Ne
