data_image0
_cell_length_a       47.4644
_cell_length_b       46.6443
_cell_length_c       46.5951
_cell_angle_alpha    90
_cell_angle_beta     90
_cell_angle_gamma    90

_symmetry_space_group_name_H-M    "P 1"
_symmetry_int_tables_number       1

loop_
  _symmetry_equiv_pos_as_xyz
  'x, y, z'

loop_
  _atom_site_label
  _atom_site_occupancy
  _atom_site_fract_x
  _atom_site_fract_y
  _atom_site_fract_z
  _atom_site_thermal_displace_type
  _atom_site_B_iso_or_equiv
  _atom_site_type_symbol
  Ne1      1.0000 0.47325  0.06874  0.53879  Biso   1.000  Ne
  He1      1.0000 0.48181  0.05080  0.56591  Biso   1.000  He
  He2      1.0000 0.46985  0.06178  0.59267  Biso   1.000  He
  Ne2      1.0000 0.47739  0.04261  0.61860  Biso   1.000  Ne
  Ne3      1.0000 0.22467  0.59075  0.42774  Biso   1.000  Ne
  He3      1.0000 0.19607  0.59005  0.40825  Biso   1.000  He
  He4      1.0000 0.17450  0.56689  0.41622  Biso   1.000  He
  Ne4      1.0000 0.14825  0.56645  0.39853  Biso   1.000  Ne
  Ne5      1.0000 0.09917  0.34253  0.66000  Biso   1.000  Ne
  He5      1.0000 0.10176  0.34425  0.62614  Biso   1.000  He
  He6      1.0000 0.10579  0.37467  0.61378  Biso   1.000  He
  Ne6      1.0000 0.11039  0.37771  0.58140  Biso   1.000  Ne
  Ne7      1.0000 0.37433  0.19877  0.41309  Biso   1.000  Ne
  He7      1.0000 0.40011  0.18817  0.39340  Biso   1.000  He
  He8      1.0000 0.41905  0.16868  0.41135  Biso   1.000  He
  Ne8      1.0000 0.44382  0.15656  0.39275  Biso   1.000  Ne
  Ne9      1.0000 0.78665  0.09095  0.11563  Biso   1.000  Ne
  He9      1.0000 0.77826  0.08563  0.14941  Biso   1.000  He
  He10     1.0000 0.80417  0.07537  0.16886  Biso   1.000  He
  Ne10     1.0000 0.78953  0.07125  0.19882  Biso   1.000  Ne
  Ne11     1.0000 0.30685  0.56169  0.19295  Biso   1.000  Ne
  He11     1.0000 0.29206  0.57731  0.21970  Biso   1.000  He
  He12     1.0000 0.30553  0.56775  0.24963  Biso   1.000  He
  Ne12     1.0000 0.28923  0.58286  0.27674  Biso   1.000  Ne
  Ne13     1.0000 0.42662  0.40934  0.95146  Biso   1.000  Ne
  He13     1.0000 0.43156  0.38785  0.92532  Biso   1.000  He
  He14     1.0000 0.42190  0.35791  0.93025  Biso   1.000  He
  Ne14     1.0000 0.42876  0.33618  0.90575  Biso   1.000  Ne
  Ne15     1.0000 0.11015  0.73074  0.42589  Biso   1.000  Ne
  He15     1.0000 0.13231  0.70610  0.42731  Biso   1.000  He
  He16     1.0000 0.14444  0.69467  0.39677  Biso   1.000  He
  Ne16     1.0000 0.16867  0.66945  0.40002  Biso   1.000  Ne
  Ne17     1.0000 0.33904  0.63571  0.93405  Biso   1.000  Ne
  He17     1.0000 0.36478  0.61708  0.92479  Biso   1.000  He
  He18     1.0000 0.36227  0.58652  0.93485  Biso   1.000  He
  Ne18     1.0000 0.38533  0.56485  0.92415  Biso   1.000  Ne
  Ne19     1.0000 0.42069  0.82707  0.43127  Biso   1.000  Ne
  He19     1.0000 0.44096  0.81845  0.40872  Biso   1.000  He
  He20     1.0000 0.43031  0.80697  0.37869  Biso   1.000  He
  Ne20     1.0000 0.45505  0.79546  0.36002  Biso   1.000  Ne
  Ne21     1.0000 0.43729  0.38022  0.14960  Biso   1.000  Ne
  He21     1.0000 0.41649  0.36191  0.16854  Biso   1.000  He
  He22     1.0000 0.43099  0.33387  0.18087  Biso   1.000  He
  Ne22     1.0000 0.40916  0.31437  0.19588  Biso   1.000  Ne
  Ne23     1.0000 0.30710  0.06128  0.58909  Biso   1.000  Ne
  He23     1.0000 0.33657  0.07495  0.57873  Biso   1.000  He
  He24     1.0000 0.34900  0.09833  0.59949  Biso   1.000  He
  Ne24     1.0000 0.37236  0.11587  0.58433  Biso   1.000  Ne
  Ne25     1.0000 0.00997  0.92830  0.05756  Biso   1.000  Ne
  He25     1.0000 0.98987  0.92047  0.03383  Biso   1.000  He
  He26     1.0000 0.98060  0.94334  0.01313  Biso   1.000  He
  Ne26     1.0000 0.96011  0.93302  0.99019  Biso   1.000  Ne
  Ne27     1.0000 0.98365  0.51498  0.59957  Biso   1.000  Ne
  He27     1.0000 0.98060  0.49211  0.57560  Biso   1.000  He
  He28     1.0000 0.96254  0.46596  0.58346  Biso   1.000  He
  Ne28     1.0000 0.95444  0.44771  0.55745  Biso   1.000  Ne
  Ne29     1.0000 0.39711  0.36456  0.48728  Biso   1.000  Ne
  He29     1.0000 0.37651  0.38632  0.46867  Biso   1.000  He
  He30     1.0000 0.37413  0.41717  0.48445  Biso   1.000  He
  Ne30     1.0000 0.35937  0.43756  0.46371  Biso   1.000  Ne
  Ne31     1.0000 0.43820  0.58326  0.08959  Biso   1.000  Ne
  He31     1.0000 0.43014  0.61361  0.10007  Biso   1.000  He
  He32     1.0000 0.39665  0.61813  0.10325  Biso   1.000  He
  Ne32     1.0000 0.38988  0.64952  0.11210  Biso   1.000  Ne
  Ne33     1.0000 0.84125  0.20733  0.92351  Biso   1.000  Ne
  He33     1.0000 0.86693  0.19375  0.90946  Biso   1.000  He
  He34     1.0000 0.86686  0.16181  0.91335  Biso   1.000  He
  Ne34     1.0000 0.89466  0.14870  0.90143  Biso   1.000  Ne
  Ne35     1.0000 0.09165  0.09717  0.95774  Biso   1.000  Ne
  He35     1.0000 0.08245  0.06747  0.95268  Biso   1.000  He
  He36     1.0000 0.10231  0.04671  0.93574  Biso   1.000  He
  Ne36     1.0000 0.09147  0.01545  0.93811  Biso   1.000  Ne
  Ne37     1.0000 0.94574  0.67160  0.62738  Biso   1.000  Ne
  He37     1.0000 0.92685  0.64167  0.62628  Biso   1.000  He
  He38     1.0000 0.94889  0.61639  0.61978  Biso   1.000  He
  Ne38     1.0000 0.93288  0.58602  0.62496  Biso   1.000  Ne
  Ne39     1.0000 0.10877  0.82442  0.20063  Biso   1.000  Ne
  He39     1.0000 0.12326  0.85520  0.19576  Biso   1.000  He
  He40     1.0000 0.11468  0.87201  0.16834  Biso   1.000  He
  Ne40     1.0000 0.13023  0.90299  0.16450  Biso   1.000  Ne
  Ne41     1.0000 0.10927  0.68848  0.66292  Biso   1.000  Ne
  He41     1.0000 0.11524  0.69374  0.69546  Biso   1.000  He
  He42     1.0000 0.13011  0.72310  0.70183  Biso   1.000  He
  Ne42     1.0000 0.13562  0.72752  0.73091  Biso   1.000  Ne
  Ne43     1.0000 0.50100  0.40447  0.01496  Biso   1.000  Ne
  He43     1.0000 0.48062  0.41496  0.04045  Biso   1.000  He
  He44     1.0000 0.44838  0.40693  0.04480  Biso   1.000  He
  Ne44     1.0000 0.43085  0.42450  0.06877  Biso   1.000  Ne
  Ne45     1.0000 0.28116  0.66421  0.13433  Biso   1.000  Ne
  He45     1.0000 0.29836  0.65844  0.10780  Biso   1.000  He
  He46     1.0000 0.29818  0.62564  0.09786  Biso   1.000  He
  Ne46     1.0000 0.27291  0.61609  0.08014  Biso   1.000  Ne
  Ne47     1.0000 0.58673  0.24128  0.95674  Biso   1.000  Ne
  He47     1.0000 0.58231  0.25311  0.92775  Biso   1.000  He
  He48     1.0000 0.60065  0.27870  0.91934  Biso   1.000  He
  Ne48     1.0000 0.59146  0.29297  0.89161  Biso   1.000  Ne
  Ne49     1.0000 0.44684  0.23668  0.55626  Biso   1.000  Ne
  He49     1.0000 0.43912  0.21573  0.58168  Biso   1.000  He
  He50     1.0000 0.40621  0.20865  0.58345  Biso   1.000  He
  Ne50     1.0000 0.39695  0.18947  0.61227  Biso   1.000  Ne
  Ne51     1.0000 0.07379  0.46443  0.59311  Biso   1.000  Ne
  He51     1.0000 0.09139  0.45230  0.56688  Biso   1.000  He
  He52     1.0000 0.07822  0.45680  0.53610  Biso   1.000  He
  Ne52     1.0000 0.09296  0.44216  0.51135  Biso   1.000  Ne
  Ne53     1.0000 0.42316  0.32364  0.40614  Biso   1.000  Ne
  He53     1.0000 0.39704  0.30949  0.41471  Biso   1.000  He
  He54     1.0000 0.36863  0.32711  0.40828  Biso   1.000  He
  Ne54     1.0000 0.33885  0.31406  0.42214  Biso   1.000  Ne
  Ne55     1.0000 0.75182  0.02092  0.90520  Biso   1.000  Ne
  He55     1.0000 0.77983  0.03639  0.89884  Biso   1.000  He
  He56     1.0000 0.77705  0.06626  0.91519  Biso   1.000  He
  Ne56     1.0000 0.80027  0.08598  0.90230  Biso   1.000  Ne
  Ne57     1.0000 0.08579  0.03299  0.09037  Biso   1.000  Ne
  He57     1.0000 0.08261  0.04370  0.12106  Biso   1.000  He
  He58     1.0000 0.10967  0.06001  0.13074  Biso   1.000  He
  Ne58     1.0000 0.10706  0.06788  0.16364  Biso   1.000  Ne
  Ne59     1.0000 0.45718  0.60069  0.90320  Biso   1.000  Ne
  He59     1.0000 0.45428  0.63141  0.91845  Biso   1.000  He
  He60     1.0000 0.43159  0.64809  0.90733  Biso   1.000  He
  Ne60     1.0000 0.42590  0.67559  0.92490  Biso   1.000  Ne
  Ne61     1.0000 0.57912  0.41681  0.02047  Biso   1.000  Ne
  He61     1.0000 0.59869  0.42989  0.04260  Biso   1.000  He
  He62     1.0000 0.61625  0.41034  0.05930  Biso   1.000  He
  Ne62     1.0000 0.62993  0.42263  0.08225  Biso   1.000  Ne
  Ne63     1.0000 0.10470  0.29440  0.38791  Biso   1.000  Ne
  He63     1.0000 0.13054  0.27957  0.37043  Biso   1.000  He
  He64     1.0000 0.11989  0.25462  0.35016  Biso   1.000  He
  Ne64     1.0000 0.14465  0.24126  0.32923  Biso   1.000  Ne
  Ne65     1.0000 0.83315  0.35665  0.31122  Biso   1.000  Ne
  He65     1.0000 0.85551  0.38023  0.31773  Biso   1.000  He
  He66     1.0000 0.86099  0.40091  0.29241  Biso   1.000  He
  Ne66     1.0000 0.88060  0.42358  0.30257  Biso   1.000  Ne
  Ne67     1.0000 0.89353  0.31114  0.44998  Biso   1.000  Ne
  He67     1.0000 0.87870  0.33266  0.42936  Biso   1.000  He
  He68     1.0000 0.88969  0.36336  0.42894  Biso   1.000  He
  Ne68     1.0000 0.87056  0.38265  0.41217  Biso   1.000  Ne
  Ne69     1.0000 0.58623  0.87306  0.63196  Biso   1.000  Ne
  He69     1.0000 0.61244  0.88389  0.61347  Biso   1.000  He
  He70     1.0000 0.63024  0.85713  0.60326  Biso   1.000  He
  Ne70     1.0000 0.65525  0.86679  0.58193  Biso   1.000  Ne
  Ne71     1.0000 0.32234  0.41075  0.09536  Biso   1.000  Ne
  He71     1.0000 0.35079  0.39445  0.09308  Biso   1.000  He
  He72     1.0000 0.34865  0.36223  0.09070  Biso   1.000  He
  Ne72     1.0000 0.37620  0.34569  0.08408  Biso   1.000  Ne
  Ne73     1.0000 0.59967  0.30758  0.15930  Biso   1.000  Ne
  He73     1.0000 0.60728  0.29896  0.12878  Biso   1.000  He
  He74     1.0000 0.62531  0.32093  0.11432  Biso   1.000  He
  Ne74     1.0000 0.63369  0.31624  0.08140  Biso   1.000  Ne
  Ne75     1.0000 0.52200  0.64323  0.47446  Biso   1.000  Ne
  He75     1.0000 0.49595  0.66335  0.46357  Biso   1.000  He
  He76     1.0000 0.49702  0.69639  0.46757  Biso   1.000  He
  Ne76     1.0000 0.46594  0.71068  0.46212  Biso   1.000  Ne
  Ne77     1.0000 0.36454  0.82947  0.28464  Biso   1.000  Ne
  He77     1.0000 0.37192  0.84848  0.31016  Biso   1.000  He
  He78     1.0000 0.35119  0.87233  0.31542  Biso   1.000  He
  Ne78     1.0000 0.35832  0.89075  0.34161  Biso   1.000  Ne
  Ne79     1.0000 0.11640  0.21814  0.10840  Biso   1.000  Ne
  He79     1.0000 0.09651  0.19287  0.11769  Biso   1.000  He
  He80     1.0000 0.10599  0.16198  0.10269  Biso   1.000  He
  Ne80     1.0000 0.08934  0.13747  0.11210  Biso   1.000  Ne
  Ne81     1.0000 0.14436  0.11764  0.84977  Biso   1.000  Ne
  He81     1.0000 0.13855  0.09371  0.82941  Biso   1.000  He
  He82     1.0000 0.10988  0.09638  0.81812  Biso   1.000  He
  Ne82     1.0000 0.10509  0.07393  0.79690  Biso   1.000  Ne
  Ne83     1.0000 0.88352  0.06635  0.90599  Biso   1.000  Ne
  He83     1.0000 0.89118  0.07072  0.87494  Biso   1.000  He
  He84     1.0000 0.87216  0.05689  0.85270  Biso   1.000  He
  Ne84     1.0000 0.88290  0.06150  0.82117  Biso   1.000  Ne
  Ne85     1.0000 0.45953  0.57423  0.97633  Biso   1.000  Ne
  He85     1.0000 0.46750  0.54535  0.99415  Biso   1.000  He
  He86     1.0000 0.46720  0.51694  0.97603  Biso   1.000  He
  Ne86     1.0000 0.47514  0.48784  0.99092  Biso   1.000  Ne
  Ne87     1.0000 0.28849  0.42465  0.91041  Biso   1.000  Ne
  He87     1.0000 0.31402  0.40956  0.91908  Biso   1.000  He
  He88     1.0000 0.30696  0.37761  0.92493  Biso   1.000  He
  Ne88     1.0000 0.33555  0.36251  0.92825  Biso   1.000  Ne
  Ne89     1.0000 0.63182  0.53772  0.07435  Biso   1.000  Ne
  He89     1.0000 0.60490  0.52373  0.07377  Biso   1.000  He
  He90     1.0000 0.58046  0.54231  0.08859  Biso   1.000  He
  Ne90     1.0000 0.55156  0.52541  0.08551  Biso   1.000  Ne
  Ne91     1.0000 0.04115  0.92613  0.95762  Biso   1.000  Ne
  He91     1.0000 0.05243  0.92869  0.99015  Biso   1.000  He
  He92     1.0000 0.07532  0.95075  0.99291  Biso   1.000  He
  Ne92     1.0000 0.07977  0.95923  0.02349  Biso   1.000  Ne
  Ne93     1.0000 0.59983  0.58901  0.78195  Biso   1.000  Ne
  He93     1.0000 0.60069  0.62145  0.79113  Biso   1.000  He
  He94     1.0000 0.60440  0.62555  0.82417  Biso   1.000  He
  Ne94     1.0000 0.60751  0.65517  0.83296  Biso   1.000  Ne
  Ne95     1.0000 0.89546  0.90169  0.91066  Biso   1.000  Ne
  He95     1.0000 0.88438  0.89273  0.88291  Biso   1.000  He
  He96     1.0000 0.85192  0.89430  0.88013  Biso   1.000  He
  Ne96     1.0000 0.84193  0.88697  0.85072  Biso   1.000  Ne
  Ne97     1.0000 0.95907  0.09376  0.94327  Biso   1.000  Ne
  He97     1.0000 0.98512  0.07199  0.95202  Biso   1.000  He
  He98     1.0000 0.97730  0.04826  0.97306  Biso   1.000  He
  Ne98     1.0000 0.00295  0.02882  0.97646  Biso   1.000  Ne
  Ne99     1.0000 0.14126  0.54519  0.27606  Biso   1.000  Ne
  He99     1.0000 0.11061  0.55513  0.29030  Biso   1.000  He
  He100    1.0000 0.11746  0.58020  0.30950  Biso   1.000  He
  Ne100    1.0000 0.09044  0.59211  0.32630  Biso   1.000  Ne
  Ne101    1.0000 0.90117  0.31256  0.61277  Biso   1.000  Ne
  He101    1.0000 0.93214  0.32710  0.60464  Biso   1.000  He
  He102    1.0000 0.93005  0.35733  0.59265  Biso   1.000  He
  Ne102    1.0000 0.95796  0.37225  0.58642  Biso   1.000  Ne
  Ne103    1.0000 0.73523  0.59826  0.57625  Biso   1.000  Ne
  He103    1.0000 0.76843  0.60748  0.56850  Biso   1.000  He
  He104    1.0000 0.79369  0.60435  0.59256  Biso   1.000  He
  Ne104    1.0000 0.82503  0.60928  0.58128  Biso   1.000  Ne
  Ne105    1.0000 0.44987  0.31898  0.08936  Biso   1.000  Ne
  He105    1.0000 0.44202  0.29100  0.10467  Biso   1.000  He
  He106    1.0000 0.44412  0.26408  0.08817  Biso   1.000  He
  Ne106    1.0000 0.41523  0.25529  0.07927  Biso   1.000  Ne
  Ne107    1.0000 0.26838  0.09056  0.85478  Biso   1.000  Ne
  He107    1.0000 0.25363  0.08011  0.88352  Biso   1.000  He
  He108    1.0000 0.22797  0.09679  0.89558  Biso   1.000  He
  Ne108    1.0000 0.21282  0.08177  0.92167  Biso   1.000  Ne
  Ne109    1.0000 0.56432  0.28170  0.30851  Biso   1.000  Ne
  He109    1.0000 0.56576  0.25204  0.32705  Biso   1.000  He
  He110    1.0000 0.59001  0.25204  0.34710  Biso   1.000  He
  Ne110    1.0000 0.59911  0.22454  0.36090  Biso   1.000  Ne
  Ne111    1.0000 0.63608  0.75173  0.42779  Biso   1.000  Ne
  He111    1.0000 0.62004  0.78159  0.43291  Biso   1.000  He
  He112    1.0000 0.63812  0.80811  0.42255  Biso   1.000  He
  Ne112    1.0000 0.62001  0.83492  0.42468  Biso   1.000  Ne
  Ne113    1.0000 0.40020  0.54824  0.22958  Biso   1.000  Ne
  He113    1.0000 0.42356  0.55758  0.20793  Biso   1.000  He
  He114    1.0000 0.42133  0.58946  0.19544  Biso   1.000  He
  Ne114    1.0000 0.44678  0.59985  0.17820  Biso   1.000  Ne
  Ne115    1.0000 0.95838  0.89082  0.11479  Biso   1.000  Ne
  He115    1.0000 0.95614  0.85661  0.11438  Biso   1.000  He
  He116    1.0000 0.93417  0.84577  0.13729  Biso   1.000  He
  Ne116    1.0000 0.93330  0.81361  0.14200  Biso   1.000  Ne
  Ne117    1.0000 0.39755  0.40637  0.84003  Biso   1.000  Ne
  He117    1.0000 0.36418  0.39805  0.83987  Biso   1.000  He
  He118    1.0000 0.35089  0.40172  0.81253  Biso   1.000  He
  Ne118    1.0000 0.31904  0.39754  0.81553  Biso   1.000  Ne
  Ne119    1.0000 0.60944  0.56328  0.20597  Biso   1.000  Ne
  He119    1.0000 0.60971  0.56943  0.17580  Biso   1.000  He
  He120    1.0000 0.62004  0.59902  0.16861  Biso   1.000  He
  Ne120    1.0000 0.61681  0.61023  0.13689  Biso   1.000  Ne
  Ne121    1.0000 0.73625  0.07094  0.39997  Biso   1.000  Ne
  He121    1.0000 0.73116  0.08018  0.36787  Biso   1.000  He
  He122    1.0000 0.70404  0.06967  0.35315  Biso   1.000  He
  Ne122    1.0000 0.68255  0.09622  0.34861  Biso   1.000  Ne
  Ne123    1.0000 0.60960  0.40129  0.25615  Biso   1.000  Ne
  He123    1.0000 0.60114  0.40108  0.22636  Biso   1.000  He
  He124    1.0000 0.62624  0.40079  0.20661  Biso   1.000  He
  Ne124    1.0000 0.61654  0.40161  0.17702  Biso   1.000  Ne
  Ne125    1.0000 0.29446  0.90108  0.12203  Biso   1.000  Ne
  He125    1.0000 0.26518  0.89564  0.11582  Biso   1.000  He
  He126    1.0000 0.24374  0.92151  0.10650  Biso   1.000  He
  Ne126    1.0000 0.21444  0.91326  0.09732  Biso   1.000  Ne
  Ne127    1.0000 0.92990  0.29841  0.28921  Biso   1.000  Ne
  He127    1.0000 0.94265  0.30063  0.32053  Biso   1.000  He
  He128    1.0000 0.93679  0.32822  0.33678  Biso   1.000  He
  Ne128    1.0000 0.93968  0.32478  0.37033  Biso   1.000  Ne
  Ne129    1.0000 0.96307  0.51000  0.48340  Biso   1.000  Ne
  He129    1.0000 0.94673  0.50994  0.45469  Biso   1.000  He
  He130    1.0000 0.96790  0.51068  0.42869  Biso   1.000  He
  Ne130    1.0000 0.97025  0.54061  0.41367  Biso   1.000  Ne
  Ne131    1.0000 0.35664  0.84025  0.59847  Biso   1.000  Ne
  He131    1.0000 0.34810  0.86969  0.60454  Biso   1.000  He
  He132    1.0000 0.31622  0.87672  0.59314  Biso   1.000  He
  Ne132    1.0000 0.30415  0.90670  0.59328  Biso   1.000  Ne
  Ne133    1.0000 0.91868  0.64666  0.41368  Biso   1.000  Ne
  He133    1.0000 0.90869  0.61657  0.41402  Biso   1.000  He
  He134    1.0000 0.87867  0.61116  0.40533  Biso   1.000  He
  Ne134    1.0000 0.86948  0.58025  0.42039  Biso   1.000  Ne
  Ne135    1.0000 0.42479  0.81583  0.66878  Biso   1.000  Ne
  He135    1.0000 0.44017  0.81395  0.63816  Biso   1.000  He
  He136    1.0000 0.42362  0.80210  0.60981  Biso   1.000  He
  Ne136    1.0000 0.44514  0.80239  0.58568  Biso   1.000  Ne
  Ne137    1.0000 0.04208  0.06923  0.03766  Biso   1.000  Ne
  He137    1.0000 0.00991  0.06804  0.04862  Biso   1.000  He
  He138    1.0000 0.00552  0.04170  0.06800  Biso   1.000  He
  Ne138    1.0000 0.97599  0.04397  0.08509  Biso   1.000  Ne
  Ne139    1.0000 0.10478  0.82971  0.92674  Biso   1.000  Ne
  He139    1.0000 0.12343  0.80394  0.91460  Biso   1.000  He
  He140    1.0000 0.11484  0.77361  0.92655  Biso   1.000  He
  Ne140    1.0000 0.13479  0.74679  0.91379  Biso   1.000  Ne
  Ne141    1.0000 0.01666  0.69331  0.12954  Biso   1.000  Ne
  He141    1.0000 0.03984  0.69727  0.15182  Biso   1.000  He
  He142    1.0000 0.03863  0.67714  0.17802  Biso   1.000  He
  Ne142    1.0000 0.05869  0.68388  0.20321  Biso   1.000  Ne
  Ne143    1.0000 0.57163  0.08740  0.54895  Biso   1.000  Ne
  He143    1.0000 0.58463  0.06089  0.56598  Biso   1.000  He
  He144    1.0000 0.59343  0.07009  0.59746  Biso   1.000  He
  Ne144    1.0000 0.61141  0.05016  0.61774  Biso   1.000  Ne
  Ne145    1.0000 0.88766  0.93198  0.08503  Biso   1.000  Ne
  He145    1.0000 0.87418  0.91291  0.10747  Biso   1.000  He
  He146    1.0000 0.84775  0.92579  0.12599  Biso   1.000  He
  Ne146    1.0000 0.83278  0.90578  0.14679  Biso   1.000  Ne
  Ne147    1.0000 0.64207  0.58083  0.93414  Biso   1.000  Ne
  He147    1.0000 0.66051  0.57060  0.90896  Biso   1.000  He
  He148    1.0000 0.68346  0.59265  0.90215  Biso   1.000  He
  Ne148    1.0000 0.70506  0.58159  0.87668  Biso   1.000  Ne
  Ne149    1.0000 0.44873  0.99885  0.46993  Biso   1.000  Ne
  He149    1.0000 0.45134  0.02213  0.44477  Biso   1.000  He
  He150    1.0000 0.44833  0.05312  0.45389  Biso   1.000  He
  Ne150    1.0000 0.45266  0.07486  0.42819  Biso   1.000  Ne
  Ne151    1.0000 0.52094  0.91890  0.56845  Biso   1.000  Ne
  He151    1.0000 0.55402  0.92764  0.55699  Biso   1.000  He
  He152    1.0000 0.56377  0.95749  0.56546  Biso   1.000  He
  Ne152    1.0000 0.59525  0.96189  0.56486  Biso   1.000  Ne
  Ne153    1.0000 0.76499  0.33610  0.37863  Biso   1.000  Ne
  He153    1.0000 0.76118  0.36916  0.37830  Biso   1.000  He
  He154    1.0000 0.78794  0.38632  0.38255  Biso   1.000  He
  Ne154    1.0000 0.78686  0.41829  0.38736  Biso   1.000  Ne
  Ne155    1.0000 0.19815  0.90406  0.90226  Biso   1.000  Ne
  He155    1.0000 0.22984  0.91283  0.90455  Biso   1.000  He
  He156    1.0000 0.24659  0.91095  0.87409  Biso   1.000  He
  Ne156    1.0000 0.27678  0.91952  0.87795  Biso   1.000  Ne
  Ne157    1.0000 0.41545  0.04817  0.25554  Biso   1.000  Ne
  He157    1.0000 0.41450  0.05033  0.28820  Biso   1.000  He
  He158    1.0000 0.42853  0.07675  0.30008  Biso   1.000  He
  Ne158    1.0000 0.42847  0.07887  0.33425  Biso   1.000  Ne
  Ne159    1.0000 0.10061  0.59022  0.65670  Biso   1.000  Ne
  He159    1.0000 0.09794  0.60082  0.69051  Biso   1.000  He
  He160    1.0000 0.11657  0.57943  0.71039  Biso   1.000  He
  Ne160    1.0000 0.11029  0.58563  0.74431  Biso   1.000  Ne
  Ne161    1.0000 0.33172  0.87455  0.72798  Biso   1.000  Ne
  He161    1.0000 0.31551  0.89718  0.71163  Biso   1.000  He
  He162    1.0000 0.28463  0.89305  0.71043  Biso   1.000  He
  Ne162    1.0000 0.27215  0.91948  0.69512  Biso   1.000  Ne
  Ne163    1.0000 0.32366  0.04617  0.34629  Biso   1.000  Ne
  He163    1.0000 0.34205  0.06447  0.36315  Biso   1.000  He
  He164    1.0000 0.34025  0.05878  0.39594  Biso   1.000  He
  Ne164    1.0000 0.35883  0.07857  0.41137  Biso   1.000  Ne
  Ne165    1.0000 0.65648  0.90883  0.42074  Biso   1.000  Ne
  He165    1.0000 0.68800  0.90980  0.40628  Biso   1.000  He
  He166    1.0000 0.71165  0.89586  0.42522  Biso   1.000  He
  Ne166    1.0000 0.74112  0.90276  0.41209  Biso   1.000  Ne
  Ne167    1.0000 0.58110  0.07887  0.43514  Biso   1.000  Ne
  He167    1.0000 0.56319  0.06805  0.46075  Biso   1.000  He
  He168    1.0000 0.55380  0.03738  0.45707  Biso   1.000  He
  Ne168    1.0000 0.53899  0.02443  0.48278  Biso   1.000  Ne
  Ne169    1.0000 0.47356  0.91040  0.46697  Biso   1.000  Ne
  He169    1.0000 0.50403  0.89728  0.46086  Biso   1.000  He
  He170    1.0000 0.52843  0.92083  0.45676  Biso   1.000  He
  Ne170    1.0000 0.55464  0.90676  0.45124  Biso   1.000  Ne
  Ne171    1.0000 0.10193  0.88218  0.08592  Biso   1.000  Ne
  He171    1.0000 0.13622  0.88050  0.08668  Biso   1.000  He
  He172    1.0000 0.14834  0.84691  0.08700  Biso   1.000  He
  Ne172    1.0000 0.18057  0.84381  0.09638  Biso   1.000  Ne
  Ne173    1.0000 0.93963  0.06214  0.24625  Biso   1.000  Ne
  He173    1.0000 0.91548  0.06741  0.22517  Biso   1.000  He
  He174    1.0000 0.92788  0.07092  0.19578  Biso   1.000  He
  Ne174    1.0000 0.90378  0.07627  0.17492  Biso   1.000  Ne
  Ne175    1.0000 0.15878  0.42110  0.44337  Biso   1.000  Ne
  He175    1.0000 0.18347  0.39986  0.43401  Biso   1.000  He
  He176    1.0000 0.20949  0.41473  0.41899  Biso   1.000  He
  Ne176    1.0000 0.23580  0.39421  0.40765  Biso   1.000  Ne
  Ne177    1.0000 0.65292  0.11271  0.43973  Biso   1.000  Ne
  He177    1.0000 0.66122  0.14178  0.42688  Biso   1.000  He
  He178    1.0000 0.68812  0.14066  0.40957  Biso   1.000  He
  Ne178    1.0000 0.69196  0.16831  0.39194  Biso   1.000  Ne
  Ne179    1.0000 0.57344  0.52183  0.96463  Biso   1.000  Ne
  He179    1.0000 0.56563  0.48973  0.96038  Biso   1.000  He
  He180    1.0000 0.55395  0.48067  0.92771  Biso   1.000  He
  Ne180    1.0000 0.54508  0.45037  0.92606  Biso   1.000  Ne
  Ne181    1.0000 0.43583  0.89751  0.57975  Biso   1.000  Ne
  He181    1.0000 0.44842  0.89924  0.61176  Biso   1.000  He
  He182    1.0000 0.43050  0.91356  0.63393  Biso   1.000  He
  Ne182    1.0000 0.43691  0.90735  0.66590  Biso   1.000  Ne
  Ne183    1.0000 0.40146  0.59495  0.82196  Biso   1.000  Ne
  He183    1.0000 0.37779  0.58544  0.84430  Biso   1.000  He
  He184    1.0000 0.34969  0.57102  0.83173  Biso   1.000  He
  Ne184    1.0000 0.32712  0.56863  0.85401  Biso   1.000  Ne
  Ne185    1.0000 0.30504  0.80071  0.05763  Biso   1.000  Ne
  He185    1.0000 0.27846  0.81108  0.07666  Biso   1.000  He
  He186    1.0000 0.28313  0.80435  0.10977  Biso   1.000  He
  Ne186    1.0000 0.25595  0.81039  0.12760  Biso   1.000  Ne
  Ne187    1.0000 0.43388  0.35548  0.73207  Biso   1.000  Ne
  He187    1.0000 0.43271  0.35661  0.76288  Biso   1.000  He
  He188    1.0000 0.43099  0.32820  0.77825  Biso   1.000  He
  Ne188    1.0000 0.43157  0.33087  0.81048  Biso   1.000  Ne
  Ne189    1.0000 0.90574  0.90261  0.19193  Biso   1.000  Ne
  He189    1.0000 0.92563  0.88256  0.20714  Biso   1.000  He
  He190    1.0000 0.91149  0.85533  0.22074  Biso   1.000  He
  Ne190    1.0000 0.93237  0.83404  0.23264  Biso   1.000  Ne
  Ne191    1.0000 0.60058  0.12063  0.34930  Biso   1.000  Ne
  He191    1.0000 0.59110  0.09801  0.32778  Biso   1.000  He
  He192    1.0000 0.59477  0.10589  0.29583  Biso   1.000  He
  Ne192    1.0000 0.58031  0.08351  0.27937  Biso   1.000  Ne
  Ne193    1.0000 0.26073  0.37132  0.32855  Biso   1.000  Ne
  He193    1.0000 0.28718  0.37355  0.34901  Biso   1.000  He
  He194    1.0000 0.31402  0.38868  0.33520  Biso   1.000  He
  Ne194    1.0000 0.33650  0.39954  0.35760  Biso   1.000  Ne
  Ne195    1.0000 0.69682  0.11829  0.61046  Biso   1.000  Ne
  He195    1.0000 0.67647  0.14176  0.59993  Biso   1.000  He
  He196    1.0000 0.64503  0.13229  0.59560  Biso   1.000  He
  Ne196    1.0000 0.62260  0.15352  0.58794  Biso   1.000  Ne
  Ne197    1.0000 0.91527  0.81979  0.87302  Biso   1.000  Ne
  He197    1.0000 0.90614  0.80759  0.90263  Biso   1.000  He
  He198    1.0000 0.88526  0.78196  0.90446  Biso   1.000  He
  Ne198    1.0000 0.88377  0.77047  0.93619  Biso   1.000  Ne
  Ne199    1.0000 0.04352  0.55095  0.48701  Biso   1.000  Ne
  He199    1.0000 0.06900  0.53233  0.49321  Biso   1.000  He
  He200    1.0000 0.08992  0.53633  0.46688  Biso   1.000  He
  Ne200    1.0000 0.12119  0.52702  0.47404  Biso   1.000  Ne
  Ne201    1.0000 0.10886  0.36930  0.35420  Biso   1.000  Ne
  He201    1.0000 0.12315  0.38853  0.33351  Biso   1.000  He
  He202    1.0000 0.11795  0.37974  0.30205  Biso   1.000  He
  Ne202    1.0000 0.13654  0.39734  0.28176  Biso   1.000  Ne
  Ne203    1.0000 0.89092  0.06361  0.08264  Biso   1.000  Ne
  He203    1.0000 0.87489  0.08184  0.10524  Biso   1.000  He
  He204    1.0000 0.87673  0.11383  0.10101  Biso   1.000  He
  Ne204    1.0000 0.87101  0.13550  0.12354  Biso   1.000  Ne
  Ne205    1.0000 0.24540  0.62089  0.57897  Biso   1.000  Ne
  He205    1.0000 0.22037  0.60797  0.59705  Biso   1.000  He
  He206    1.0000 0.21981  0.57694  0.60014  Biso   1.000  He
  Ne206    1.0000 0.19334  0.56887  0.61779  Biso   1.000  Ne
  Ne207    1.0000 0.17809  0.08159  0.09921  Biso   1.000  Ne
  He207    1.0000 0.17241  0.11281  0.09282  Biso   1.000  He
  He208    1.0000 0.19956  0.13186  0.10286  Biso   1.000  He
  Ne208    1.0000 0.19344  0.16014  0.09109  Biso   1.000  Ne
  Ne209    1.0000 0.65043  0.35460  0.85031  Biso   1.000  Ne
  He209    1.0000 0.65094  0.37605  0.87532  Biso   1.000  He
  He210    1.0000 0.68147  0.38701  0.88049  Biso   1.000  He
  Ne210    1.0000 0.68634  0.40491  0.90685  Biso   1.000  Ne
  Ne211    1.0000 0.13232  0.53685  0.56502  Biso   1.000  Ne
  He211    1.0000 0.11243  0.56171  0.57084  Biso   1.000  He
  He212    1.0000 0.08322  0.55174  0.57822  Biso   1.000  He
  Ne212    1.0000 0.06042  0.57329  0.58873  Biso   1.000  Ne
  Ne213    1.0000 0.30414  0.24914  0.93320  Biso   1.000  Ne
  He213    1.0000 0.29668  0.21869  0.93956  Biso   1.000  He
  He214    1.0000 0.31173  0.20225  0.96599  Biso   1.000  He
  Ne214    1.0000 0.30152  0.17292  0.97244  Biso   1.000  Ne
  Ne215    1.0000 0.70454  0.41022  0.16022  Biso   1.000  Ne
  He215    1.0000 0.71269  0.40870  0.12759  Biso   1.000  He
  He216    1.0000 0.70505  0.38200  0.11330  Biso   1.000  He
  Ne216    1.0000 0.71582  0.37752  0.08136  Biso   1.000  Ne
  Ne217    1.0000 0.96611  0.38695  0.41192  Biso   1.000  Ne
  He217    1.0000 0.96778  0.41975  0.42282  Biso   1.000  He
  He218    1.0000 0.95563  0.42412  0.45482  Biso   1.000  He
  Ne218    1.0000 0.92354  0.43105  0.45722  Biso   1.000  Ne
  Ne219    1.0000 0.82460  0.43768  0.61798  Biso   1.000  Ne
  He219    1.0000 0.82494  0.41189  0.59982  Biso   1.000  He
  He220    1.0000 0.83174  0.38356  0.61673  Biso   1.000  He
  Ne220    1.0000 0.82946  0.35705  0.59884  Biso   1.000  Ne
