data_image0
_cell_length_a       47.313
_cell_length_b       46.7955
_cell_length_c       46.5878
_cell_angle_alpha    90
_cell_angle_beta     90
_cell_angle_gamma    90

_symmetry_space_group_name_H-M    "P 1"
_symmetry_int_tables_number       1

loop_
  _symmetry_equiv_pos_as_xyz
  'x, y, z'

loop_
  _atom_site_label
  _atom_site_occupancy
  _atom_site_fract_x
  _atom_site_fract_y
  _atom_site_fract_z
  _atom_site_thermal_displace_type
  _atom_site_B_iso_or_equiv
  _atom_site_type_symbol
  Ne1      1.0000 0.92854  0.29826  0.59559  Biso   1.000  Ne
  He1      1.0000 0.91865  0.31735  0.62099  Biso   1.000  He
  He2      1.0000 0.91734  0.30019  0.65157  Biso   1.000  He
  Ne2      1.0000 0.90762  0.31776  0.67760  Biso   1.000  Ne
  Ne3      1.0000 0.18786  0.08754  0.09258  Biso   1.000  Ne
  He3      1.0000 0.16385  0.06908  0.10201  Biso   1.000  He
  He4      1.0000 0.13984  0.06206  0.07842  Biso   1.000  He
  Ne4      1.0000 0.11272  0.05083  0.09316  Biso   1.000  Ne
  Ne5      1.0000 0.41818  0.87136  0.34153  Biso   1.000  Ne
  He5      1.0000 0.42088  0.85790  0.37078  Biso   1.000  He
  He6      1.0000 0.39267  0.85925  0.38805  Biso   1.000  He
  Ne6      1.0000 0.39710  0.83951  0.41535  Biso   1.000  Ne
  Ne7      1.0000 0.35682  0.56640  0.86050  Biso   1.000  Ne
  He7      1.0000 0.33819  0.57000  0.88571  Biso   1.000  He
  He8      1.0000 0.30957  0.54934  0.88415  Biso   1.000  He
  Ne8      1.0000 0.28954  0.54920  0.90897  Biso   1.000  Ne
  Ne9      1.0000 0.60655  0.92526  0.68396  Biso   1.000  Ne
  He9      1.0000 0.63547  0.91681  0.66887  Biso   1.000  He
  He10     1.0000 0.65924  0.92052  0.69132  Biso   1.000  He
  Ne10     1.0000 0.68982  0.91064  0.68250  Biso   1.000  Ne
  Ne11     1.0000 0.11179  0.35694  0.59315  Biso   1.000  Ne
  He11     1.0000 0.11563  0.32765  0.57673  Biso   1.000  He
  He12     1.0000 0.11143  0.29839  0.59398  Biso   1.000  He
  Ne12     1.0000 0.11135  0.27159  0.57368  Biso   1.000  Ne
  Ne13     1.0000 0.12574  0.83504  0.10209  Biso   1.000  Ne
  He13     1.0000 0.13321  0.86864  0.10477  Biso   1.000  He
  He14     1.0000 0.11674  0.88752  0.08356  Biso   1.000  He
  Ne14     1.0000 0.11809  0.91930  0.08666  Biso   1.000  Ne
  Ne15     1.0000 0.30433  0.10080  0.66904  Biso   1.000  Ne
  He15     1.0000 0.33255  0.08563  0.67373  Biso   1.000  He
  He16     1.0000 0.33349  0.06296  0.69554  Biso   1.000  He
  Ne16     1.0000 0.36413  0.05060  0.69400  Biso   1.000  Ne
  Ne17     1.0000 0.09167  0.26892  0.33158  Biso   1.000  Ne
  He17     1.0000 0.07492  0.27477  0.36348  Biso   1.000  He
  He18     1.0000 0.09321  0.29411  0.38284  Biso   1.000  He
  Ne18     1.0000 0.07769  0.30897  0.40969  Biso   1.000  Ne
  Ne19     1.0000 0.60103  0.40285  0.20533  Biso   1.000  Ne
  He19     1.0000 0.60985  0.41691  0.17347  Biso   1.000  He
  He20     1.0000 0.62358  0.39299  0.15026  Biso   1.000  He
  Ne20     1.0000 0.63243  0.40674  0.12405  Biso   1.000  Ne
  Ne21     1.0000 0.18052  0.90818  0.17282  Biso   1.000  Ne
  He21     1.0000 0.15427  0.91774  0.19252  Biso   1.000  He
  He22     1.0000 0.12663  0.90084  0.18986  Biso   1.000  He
  Ne22     1.0000 0.09750  0.92000  0.17977  Biso   1.000  Ne
  Ne23     1.0000 0.68633  0.85353  0.41088  Biso   1.000  Ne
  He23     1.0000 0.71272  0.83665  0.41972  Biso   1.000  He
  He24     1.0000 0.74054  0.85573  0.41755  Biso   1.000  He
  Ne24     1.0000 0.76840  0.84329  0.42954  Biso   1.000  Ne
  Ne25     1.0000 0.86599  0.07072  0.08646  Biso   1.000  Ne
  He25     1.0000 0.89182  0.06184  0.10647  Biso   1.000  He
  He26     1.0000 0.89568  0.07958  0.13461  Biso   1.000  He
  Ne26     1.0000 0.92358  0.06994  0.15056  Biso   1.000  Ne
  Ne27     1.0000 0.10722  0.91330  0.92793  Biso   1.000  Ne
  He27     1.0000 0.08240  0.93135  0.93545  Biso   1.000  He
  He28     1.0000 0.05634  0.91053  0.94249  Biso   1.000  He
  Ne28     1.0000 0.02947  0.92431  0.95244  Biso   1.000  Ne
  Ne29     1.0000 0.40490  0.07550  0.39806  Biso   1.000  Ne
  He29     1.0000 0.38605  0.07968  0.37226  Biso   1.000  He
  He30     1.0000 0.40117  0.08831  0.34355  Biso   1.000  He
  Ne30     1.0000 0.38185  0.08956  0.31883  Biso   1.000  Ne
  Ne31     1.0000 0.85745  0.59877  0.37415  Biso   1.000  Ne
  He31     1.0000 0.87433  0.61249  0.39990  Biso   1.000  He
  He32     1.0000 0.90504  0.61194  0.39790  Biso   1.000  He
  Ne32     1.0000 0.91762  0.62573  0.42399  Biso   1.000  Ne
  Ne33     1.0000 0.60624  0.45362  0.05598  Biso   1.000  Ne
  He33     1.0000 0.58890  0.47917  0.05678  Biso   1.000  He
  He34     1.0000 0.55784  0.47194  0.04053  Biso   1.000  He
  Ne34     1.0000 0.53584  0.49770  0.03938  Biso   1.000  Ne
  Ne35     1.0000 0.21477  0.34244  0.41640  Biso   1.000  Ne
  He35     1.0000 0.18951  0.36675  0.41589  Biso   1.000  He
  He36     1.0000 0.18307  0.38256  0.38604  Biso   1.000  He
  Ne36     1.0000 0.15942  0.40432  0.38857  Biso   1.000  Ne
  Ne37     1.0000 0.62507  0.35677  0.90516  Biso   1.000  Ne
  He37     1.0000 0.65809  0.36251  0.90737  Biso   1.000  He
  He38     1.0000 0.67488  0.34092  0.92459  Biso   1.000  He
  Ne38     1.0000 0.70722  0.34903  0.92901  Biso   1.000  Ne
  Ne39     1.0000 0.89884  0.26569  0.39473  Biso   1.000  Ne
  He39     1.0000 0.88968  0.29353  0.40988  Biso   1.000  He
  He40     1.0000 0.85842  0.29848  0.41845  Biso   1.000  He
  Ne40     1.0000 0.85246  0.32581  0.43434  Biso   1.000  Ne
