data_image0
_cell_length_a       46.7001
_cell_length_b       47.1524
_cell_length_c       46.5381
_cell_angle_alpha    90
_cell_angle_beta     90
_cell_angle_gamma    90

_symmetry_space_group_name_H-M    "P 1"
_symmetry_int_tables_number       1

loop_
  _symmetry_equiv_pos_as_xyz
  'x, y, z'

loop_
  _atom_site_label
  _atom_site_occupancy
  _atom_site_fract_x
  _atom_site_fract_y
  _atom_site_fract_z
  _atom_site_thermal_displace_type
  _atom_site_B_iso_or_equiv
  _atom_site_type_symbol
  Ne1      1.0000 0.74331  0.88326  0.97584  Biso   1.000  Ne
  He1      1.0000 0.71741  0.86173  0.97471  Biso   1.000  He
  He2      1.0000 0.71663  0.83700  0.99794  Biso   1.000  He
  Ne2      1.0000 0.69197  0.81565  0.99312  Biso   1.000  Ne
  Ne3      1.0000 0.23158  0.59709  0.77615  Biso   1.000  Ne
  He3      1.0000 0.24193  0.56871  0.76378  Biso   1.000  He
  He4      1.0000 0.25973  0.54815  0.78288  Biso   1.000  He
  Ne4      1.0000 0.29174  0.55279  0.78418  Biso   1.000  Ne
  Ne5      1.0000 0.45311  0.93426  0.45295  Biso   1.000  Ne
  He5      1.0000 0.46096  0.92021  0.42302  Biso   1.000  He
  He6      1.0000 0.43486  0.92051  0.39974  Biso   1.000  He
  Ne6      1.0000 0.44306  0.90661  0.36788  Biso   1.000  Ne
  Ne7      1.0000 0.17926  0.88062  0.91598  Biso   1.000  Ne
  He7      1.0000 0.20037  0.85510  0.91496  Biso   1.000  He
  He8      1.0000 0.19140  0.83142  0.89319  Biso   1.000  He
  Ne8      1.0000 0.21569  0.80713  0.89316  Biso   1.000  Ne
  Ne9      1.0000 0.18817  0.31731  0.58130  Biso   1.000  Ne
  He9      1.0000 0.15744  0.32416  0.57370  Biso   1.000  He
  He10     1.0000 0.14023  0.29799  0.56161  Biso   1.000  He
  Ne10     1.0000 0.10795  0.30139  0.55583  Biso   1.000  Ne
  Ne11     1.0000 0.85211  0.10641  0.15749  Biso   1.000  Ne
  He11     1.0000 0.87771  0.09538  0.13849  Biso   1.000  He
  He12     1.0000 0.88310  0.06111  0.14008  Biso   1.000  He
  Ne12     1.0000 0.91313  0.04910  0.12555  Biso   1.000  Ne
  Ne13     1.0000 0.44225  0.10281  0.28174  Biso   1.000  Ne
  He13     1.0000 0.45006  0.10139  0.31398  Biso   1.000  He
  He14     1.0000 0.42625  0.11598  0.33498  Biso   1.000  He
  Ne14     1.0000 0.43763  0.11517  0.36661  Biso   1.000  Ne
  Ne15     1.0000 0.73281  0.89443  0.59281  Biso   1.000  Ne
  He15     1.0000 0.70238  0.88338  0.59416  Biso   1.000  He
  He16     1.0000 0.68157  0.90225  0.57916  Biso   1.000  He
  Ne16     1.0000 0.64982  0.88941  0.57631  Biso   1.000  Ne
  Ne17     1.0000 0.15882  0.81654  0.07734  Biso   1.000  Ne
  He17     1.0000 0.13246  0.81076  0.09425  Biso   1.000  He
  He18     1.0000 0.12762  0.78065  0.10582  Biso   1.000  He
  Ne18     1.0000 0.10034  0.77927  0.12466  Biso   1.000  Ne
  Ne19     1.0000 0.85100  0.10041  0.91334  Biso   1.000  Ne
  He19     1.0000 0.87110  0.07455  0.90956  Biso   1.000  He
  He20     1.0000 0.89669  0.07632  0.89153  Biso   1.000  He
  Ne20     1.0000 0.91895  0.05493  0.88857  Biso   1.000  Ne
  Ne21     1.0000 0.79856  0.98465  0.63342  Biso   1.000  Ne
  He21     1.0000 0.80713  0.95334  0.63519  Biso   1.000  He
  He22     1.0000 0.82477  0.94573  0.66368  Biso   1.000  He
  Ne22     1.0000 0.83473  0.91503  0.66627  Biso   1.000  Ne
  Ne23     1.0000 0.48360  0.03905  0.48122  Biso   1.000  Ne
  He23     1.0000 0.46961  0.03221  0.45053  Biso   1.000  He
  He24     1.0000 0.48955  0.03260  0.42385  Biso   1.000  He
  Ne24     1.0000 0.47667  0.01739  0.40009  Biso   1.000  Ne
  Ne25     1.0000 0.14927  0.58511  0.40181  Biso   1.000  Ne
  He25     1.0000 0.11724  0.58470  0.41669  Biso   1.000  He
  He26     1.0000 0.09319  0.56681  0.40228  Biso   1.000  He
  Ne26     1.0000 0.06521  0.56477  0.41859  Biso   1.000  Ne
  Ne27     1.0000 0.18487  0.57042  0.57288  Biso   1.000  Ne
  He27     1.0000 0.19134  0.57900  0.60234  Biso   1.000  He
  He28     1.0000 0.16814  0.59247  0.61919  Biso   1.000  He
  Ne28     1.0000 0.17892  0.60331  0.64672  Biso   1.000  Ne
  Ne29     1.0000 0.43918  0.32436  0.09131  Biso   1.000  Ne
  He29     1.0000 0.43091  0.29171  0.09410  Biso   1.000  He
  He30     1.0000 0.45422  0.27404  0.10922  Biso   1.000  He
  Ne30     1.0000 0.44757  0.24130  0.11662  Biso   1.000  Ne
  Ne31     1.0000 0.60403  0.16739  0.34381  Biso   1.000  Ne
  He31     1.0000 0.61207  0.16677  0.37605  Biso   1.000  He
  He32     1.0000 0.59661  0.19051  0.39418  Biso   1.000  He
  Ne32     1.0000 0.60482  0.19174  0.42730  Biso   1.000  Ne
  Ne33     1.0000 0.60026  0.95814  0.48955  Biso   1.000  Ne
  He33     1.0000 0.60847  0.94975  0.52031  Biso   1.000  He
  He34     1.0000 0.58263  0.95276  0.54166  Biso   1.000  He
  Ne34     1.0000 0.58808  0.94156  0.57281  Biso   1.000  Ne
  Ne35     1.0000 0.39447  0.38000  0.82834  Biso   1.000  Ne
  He35     1.0000 0.39856  0.35329  0.81211  Biso   1.000  He
  He36     1.0000 0.43040  0.34589  0.80139  Biso   1.000  He
  Ne36     1.0000 0.42973  0.31869  0.77958  Biso   1.000  Ne
  Ne37     1.0000 0.58937  0.62574  0.27935  Biso   1.000  Ne
  He37     1.0000 0.58526  0.65129  0.25823  Biso   1.000  He
  He38     1.0000 0.59748  0.67724  0.27435  Biso   1.000  He
  Ne38     1.0000 0.59674  0.70660  0.25709  Biso   1.000  Ne
  Ne39     1.0000 0.09534  0.33257  0.37758  Biso   1.000  Ne
  He39     1.0000 0.09583  0.34975  0.40602  Biso   1.000  He
  He40     1.0000 0.08705  0.38106  0.40300  Biso   1.000  He
  Ne40     1.0000 0.07206  0.39120  0.43012  Biso   1.000  Ne
  Ne41     1.0000 0.09619  0.17812  0.18519  Biso   1.000  Ne
  He41     1.0000 0.09317  0.14744  0.17640  Biso   1.000  He
  He42     1.0000 0.09116  0.12299  0.20364  Biso   1.000  He
  Ne42     1.0000 0.08860  0.09386  0.19149  Biso   1.000  Ne
  Ne43     1.0000 0.44421  0.05643  0.55750  Biso   1.000  Ne
  He43     1.0000 0.46612  0.04114  0.57698  Biso   1.000  He
  He44     1.0000 0.49440  0.02591  0.56270  Biso   1.000  He
  Ne44     1.0000 0.51290  0.01181  0.58652  Biso   1.000  Ne
  Ne45     1.0000 0.06594  0.54830  0.50752  Biso   1.000  Ne
  He45     1.0000 0.08110  0.53611  0.53730  Biso   1.000  He
  He46     1.0000 0.09607  0.56066  0.55574  Biso   1.000  He
  Ne46     1.0000 0.07674  0.57786  0.57613  Biso   1.000  Ne
  Ne47     1.0000 0.80288  0.92080  0.93527  Biso   1.000  Ne
  He47     1.0000 0.82544  0.90059  0.92231  Biso   1.000  He
  He48     1.0000 0.81452  0.87017  0.92367  Biso   1.000  He
  Ne48     1.0000 0.83625  0.84719  0.91065  Biso   1.000  Ne
  Ne49     1.0000 0.12515  0.39485  0.67738  Biso   1.000  Ne
  He49     1.0000 0.12741  0.39953  0.64625  Biso   1.000  He
  He50     1.0000 0.11228  0.37774  0.62823  Biso   1.000  He
  Ne50     1.0000 0.10705  0.38991  0.59638  Biso   1.000  Ne
  Ne51     1.0000 0.94202  0.45814  0.53949  Biso   1.000  Ne
  He51     1.0000 0.96897  0.47689  0.55154  Biso   1.000  He
  He52     1.0000 0.96323  0.50774  0.55112  Biso   1.000  He
  Ne52     1.0000 0.94777  0.52195  0.58043  Biso   1.000  Ne
  Ne53     1.0000 0.41170  0.61535  0.82487  Biso   1.000  Ne
  He53     1.0000 0.39305  0.59099  0.82295  Biso   1.000  He
  He54     1.0000 0.39600  0.57660  0.79349  Biso   1.000  He
  Ne54     1.0000 0.37224  0.55262  0.78781  Biso   1.000  Ne
  Ne55     1.0000 0.80037  0.57207  0.37297  Biso   1.000  Ne
  He55     1.0000 0.78809  0.56903  0.40455  Biso   1.000  He
  He56     1.0000 0.77236  0.54003  0.40616  Biso   1.000  He
  Ne56     1.0000 0.76060  0.53170  0.43601  Biso   1.000  Ne
  Ne57     1.0000 0.30761  0.35999  0.91646  Biso   1.000  Ne
  He57     1.0000 0.33901  0.37264  0.90514  Biso   1.000  He
  He58     1.0000 0.36357  0.37758  0.93069  Biso   1.000  He
  Ne58     1.0000 0.38788  0.39723  0.91649  Biso   1.000  Ne
  Ne59     1.0000 0.15779  0.90014  0.28392  Biso   1.000  Ne
  He59     1.0000 0.13754  0.91633  0.26201  Biso   1.000  He
  He60     1.0000 0.14594  0.90781  0.23062  Biso   1.000  He
  Ne60     1.0000 0.12771  0.92348  0.20786  Biso   1.000  Ne
  Ne61     1.0000 0.33631  0.09145  0.38492  Biso   1.000  Ne
  He61     1.0000 0.32563  0.07425  0.35846  Biso   1.000  He
  He62     1.0000 0.33295  0.08762  0.32763  Biso   1.000  He
  Ne62     1.0000 0.32212  0.06901  0.30393  Biso   1.000  Ne
  Ne63     1.0000 0.14383  0.69479  0.40171  Biso   1.000  Ne
  He63     1.0000 0.13878  0.68185  0.37321  Biso   1.000  He
  He64     1.0000 0.10766  0.66789  0.37261  Biso   1.000  He
  Ne64     1.0000 0.10158  0.65703  0.34099  Biso   1.000  Ne
  Ne65     1.0000 0.56784  0.36816  0.93505  Biso   1.000  Ne
  He65     1.0000 0.58688  0.38414  0.91514  Biso   1.000  He
  He66     1.0000 0.61826  0.38792  0.92692  Biso   1.000  He
  Ne66     1.0000 0.63352  0.40871  0.90858  Biso   1.000  Ne
  Ne67     1.0000 0.01068  0.88413  0.65591  Biso   1.000  Ne
  He67     1.0000 0.03144  0.89048  0.68270  Biso   1.000  He
  He68     1.0000 0.02588  0.91932  0.69667  Biso   1.000  He
  Ne68     1.0000 0.04798  0.92386  0.72046  Biso   1.000  Ne
  Ne69     1.0000 0.88596  0.54973  0.38048  Biso   1.000  Ne
  He69     1.0000 0.87340  0.57701  0.38957  Biso   1.000  He
  He70     1.0000 0.89363  0.59863  0.40199  Biso   1.000  He
  Ne70     1.0000 0.87578  0.62464  0.42097  Biso   1.000  Ne
  Ne71     1.0000 0.84553  0.63823  0.16866  Biso   1.000  Ne
  He71     1.0000 0.87771  0.64601  0.17120  Biso   1.000  He
  He72     1.0000 0.89418  0.63396  0.19647  Biso   1.000  He
  Ne72     1.0000 0.92661  0.63746  0.19199  Biso   1.000  Ne
  Ne73     1.0000 0.10212  0.12019  0.09699  Biso   1.000  Ne
  He73     1.0000 0.09645  0.08732  0.10154  Biso   1.000  He
  He74     1.0000 0.07882  0.07269  0.07565  Biso   1.000  He
  Ne74     1.0000 0.07109  0.04145  0.07883  Biso   1.000  Ne
  Ne75     1.0000 0.44223  0.39059  0.24617  Biso   1.000  Ne
  He75     1.0000 0.43497  0.37826  0.21736  Biso   1.000  He
  He76     1.0000 0.44488  0.34571  0.21282  Biso   1.000  He
  Ne76     1.0000 0.43642  0.33482  0.18149  Biso   1.000  Ne
  Ne77     1.0000 0.67410  0.39110  0.25376  Biso   1.000  Ne
  He77     1.0000 0.64661  0.38877  0.23556  Biso   1.000  He
  He78     1.0000 0.63589  0.41610  0.22315  Biso   1.000  He
  Ne78     1.0000 0.61392  0.41851  0.19950  Biso   1.000  Ne
  Ne79     1.0000 0.02491  0.41730  0.52502  Biso   1.000  Ne
  He79     1.0000 0.01231  0.39609  0.54651  Biso   1.000  He
  He80     1.0000 0.98427  0.37965  0.53308  Biso   1.000  He
  Ne80     1.0000 0.96747  0.35876  0.55322  Biso   1.000  Ne
  Ne81     1.0000 0.64918  0.56185  0.84419  Biso   1.000  Ne
  He81     1.0000 0.62808  0.56685  0.81397  Biso   1.000  He
  He82     1.0000 0.59860  0.58175  0.82077  Biso   1.000  He
  Ne82     1.0000 0.58308  0.59086  0.79627  Biso   1.000  Ne
  Ne83     1.0000 0.60368  0.03189  0.55374  Biso   1.000  Ne
  He83     1.0000 0.58222  0.05340  0.56475  Biso   1.000  He
  He84     1.0000 0.59911  0.08277  0.56768  Biso   1.000  He
  Ne84     1.0000 0.57999  0.11024  0.57894  Biso   1.000  Ne
  Ne85     1.0000 0.12815  0.07927  0.77984  Biso   1.000  Ne
  He85     1.0000 0.12693  0.05182  0.80050  Biso   1.000  He
  He86     1.0000 0.14240  0.05263  0.82803  Biso   1.000  He
  Ne86     1.0000 0.12126  0.05982  0.85174  Biso   1.000  Ne
  Ne87     1.0000 0.11553  0.13233  0.83745  Biso   1.000  Ne
  He87     1.0000 0.11707  0.15978  0.81714  Biso   1.000  He
  He88     1.0000 0.11549  0.18735  0.83348  Biso   1.000  He
  Ne88     1.0000 0.12472  0.21266  0.81628  Biso   1.000  Ne
  Ne89     1.0000 0.44423  0.55772  0.20986  Biso   1.000  Ne
  He89     1.0000 0.42230  0.56238  0.18570  Biso   1.000  He
  He90     1.0000 0.39329  0.54909  0.18963  Biso   1.000  He
  Ne90     1.0000 0.37301  0.54634  0.16310  Biso   1.000  Ne
  Ne91     1.0000 0.22059  0.14651  0.91063  Biso   1.000  Ne
  He91     1.0000 0.18823  0.13876  0.91502  Biso   1.000  He
  He92     1.0000 0.17675  0.11342  0.89665  Biso   1.000  He
  Ne92     1.0000 0.14439  0.10452  0.90601  Biso   1.000  Ne
  Ne93     1.0000 0.41999  0.40778  0.05399  Biso   1.000  Ne
  He93     1.0000 0.41789  0.40299  0.08585  Biso   1.000  He
  He94     1.0000 0.43628  0.42299  0.10162  Biso   1.000  He
  Ne94     1.0000 0.43812  0.41304  0.13404  Biso   1.000  Ne
  Ne95     1.0000 0.79662  0.54311  0.59280  Biso   1.000  Ne
  He95     1.0000 0.81733  0.56707  0.57934  Biso   1.000  He
  He96     1.0000 0.81333  0.59688  0.58853  Biso   1.000  He
  Ne96     1.0000 0.83652  0.61879  0.58468  Biso   1.000  Ne
  Ne97     1.0000 0.91982  0.86726  0.89855  Biso   1.000  Ne
  He97     1.0000 0.90835  0.88200  0.92380  Biso   1.000  He
  He98     1.0000 0.92263  0.91151  0.93279  Biso   1.000  He
  Ne98     1.0000 0.91390  0.92265  0.96288  Biso   1.000  Ne
  Ne99     1.0000 0.31347  0.89340  0.41800  Biso   1.000  Ne
  He99     1.0000 0.31870  0.85851  0.42213  Biso   1.000  He
  He100    1.0000 0.29496  0.84034  0.40741  Biso   1.000  He
  Ne100    1.0000 0.29595  0.80517  0.41303  Biso   1.000  Ne
  Ne101    1.0000 0.09147  0.88777  0.10326  Biso   1.000  Ne
  He101    1.0000 0.12526  0.88929  0.10570  Biso   1.000  He
  He102    1.0000 0.13469  0.90724  0.07918  Biso   1.000  He
  Ne102    1.0000 0.16603  0.91331  0.08266  Biso   1.000  Ne
  Ne103    1.0000 0.59555  0.09810  0.73111  Biso   1.000  Ne
  He103    1.0000 0.60154  0.07398  0.71041  Biso   1.000  He
  He104    1.0000 0.58985  0.08002  0.68006  Biso   1.000  He
  Ne104    1.0000 0.59577  0.05633  0.65717  Biso   1.000  Ne
  Ne105    1.0000 0.59490  0.89123  0.67270  Biso   1.000  Ne
  He105    1.0000 0.59422  0.86022  0.65780  Biso   1.000  He
  He106    1.0000 0.59902  0.83568  0.67756  Biso   1.000  He
  Ne106    1.0000 0.60032  0.80672  0.66243  Biso   1.000  Ne
  Ne107    1.0000 0.26889  0.10503  0.10987  Biso   1.000  Ne
  He107    1.0000 0.24798  0.09147  0.08576  Biso   1.000  He
  He108    1.0000 0.22609  0.07298  0.09689  Biso   1.000  He
  Ne108    1.0000 0.20709  0.05955  0.07283  Biso   1.000  Ne
  Ne109    1.0000 0.93239  0.38918  0.35166  Biso   1.000  Ne
  He109    1.0000 0.90496  0.40346  0.36442  Biso   1.000  He
  He110    1.0000 0.88123  0.38265  0.37314  Biso   1.000  He
  Ne110    1.0000 0.85754  0.39372  0.39123  Biso   1.000  Ne
  Ne111    1.0000 0.92127  0.20027  0.09753  Biso   1.000  Ne
  He111    1.0000 0.93041  0.16828  0.08957  Biso   1.000  He
  He112    1.0000 0.90957  0.15152  0.06656  Biso   1.000  He
  Ne112    1.0000 0.92193  0.12402  0.05849  Biso   1.000  Ne
  Ne113    1.0000 0.22987  0.65007  0.93541  Biso   1.000  Ne
  He113    1.0000 0.23878  0.61553  0.94116  Biso   1.000  He
  He114    1.0000 0.24045  0.59837  0.91284  Biso   1.000  He
  Ne114    1.0000 0.25093  0.56483  0.91810  Biso   1.000  Ne
  Ne115    1.0000 0.13505  0.56275  0.73461  Biso   1.000  Ne
  He115    1.0000 0.11096  0.56093  0.71105  Biso   1.000  He
  He116    1.0000 0.11837  0.56744  0.68090  Biso   1.000  He
  Ne116    1.0000 0.09465  0.56723  0.65826  Biso   1.000  Ne
  Ne117    1.0000 0.43646  0.89476  0.56435  Biso   1.000  Ne
  He117    1.0000 0.41051  0.89573  0.58700  Biso   1.000  He
  He118    1.0000 0.37918  0.89575  0.57470  Biso   1.000  He
  Ne118    1.0000 0.35694  0.90176  0.59605  Biso   1.000  Ne
  Ne119    1.0000 0.40337  0.60095  0.94037  Biso   1.000  Ne
  He119    1.0000 0.38321  0.59372  0.91170  Biso   1.000  He
  He120    1.0000 0.35676  0.57754  0.91872  Biso   1.000  He
  Ne120    1.0000 0.33627  0.56661  0.89361  Biso   1.000  Ne
  Ne121    1.0000 0.38620  0.04743  0.64336  Biso   1.000  Ne
  He121    1.0000 0.40885  0.05386  0.66556  Biso   1.000  He
  He122    1.0000 0.40067  0.07692  0.68872  Biso   1.000  He
  Ne122    1.0000 0.42650  0.09068  0.70269  Biso   1.000  Ne
  Ne123    1.0000 0.39974  0.30356  0.91345  Biso   1.000  Ne
  He123    1.0000 0.37813  0.28077  0.90217  Biso   1.000  He
  He124    1.0000 0.36156  0.27202  0.92670  Biso   1.000  He
  Ne124    1.0000 0.33675  0.24831  0.91958  Biso   1.000  Ne
  Ne125    1.0000 0.90017  0.60473  0.66073  Biso   1.000  Ne
  He125    1.0000 0.89650  0.57644  0.67880  Biso   1.000  He
  He126    1.0000 0.92545  0.56506  0.69379  Biso   1.000  He
  Ne126    1.0000 0.92377  0.53710  0.71330  Biso   1.000  Ne
  Ne127    1.0000 0.56926  0.56637  0.93875  Biso   1.000  Ne
  He127    1.0000 0.56093  0.58900  0.91800  Biso   1.000  He
  He128    1.0000 0.58511  0.61184  0.91908  Biso   1.000  He
  Ne128    1.0000 0.58499  0.63106  0.89585  Biso   1.000  Ne
  Ne129    1.0000 0.39966  0.67968  0.11073  Biso   1.000  Ne
  He129    1.0000 0.40742  0.64714  0.11317  Biso   1.000  He
  He130    1.0000 0.38552  0.62660  0.09808  Biso   1.000  He
  Ne130    1.0000 0.40017  0.59574  0.09254  Biso   1.000  Ne
  Ne131    1.0000 0.69056  0.27376  0.08165  Biso   1.000  Ne
  He131    1.0000 0.65610  0.28135  0.08759  Biso   1.000  He
  He132    1.0000 0.63808  0.26313  0.06668  Biso   1.000  He
  Ne132    1.0000 0.60398  0.26681  0.06829  Biso   1.000  Ne
  Ne133    1.0000 0.62135  0.64712  0.17552  Biso   1.000  Ne
  He133    1.0000 0.61380  0.62677  0.15067  Biso   1.000  He
  He134    1.0000 0.61525  0.59546  0.15836  Biso   1.000  He
  Ne134    1.0000 0.59609  0.57090  0.14191  Biso   1.000  Ne
  Ne135    1.0000 0.46272  0.54029  0.03310  Biso   1.000  Ne
  He135    1.0000 0.47714  0.50835  0.02867  Biso   1.000  He
  He136    1.0000 0.48945  0.49262  0.05502  Biso   1.000  He
  Ne136    1.0000 0.50448  0.46573  0.04763  Biso   1.000  Ne
  Ne137    1.0000 0.96183  0.42183  0.43879  Biso   1.000  Ne
  He137    1.0000 0.99090  0.42757  0.42672  Biso   1.000  He
  He138    1.0000 0.00656  0.45714  0.43984  Biso   1.000  He
  Ne138    1.0000 0.03559  0.46338  0.42699  Biso   1.000  Ne
  Ne139    1.0000 0.59581  0.79444  0.42091  Biso   1.000  Ne
  He139    1.0000 0.62474  0.80982  0.42033  Biso   1.000  He
  He140    1.0000 0.64562  0.79283  0.40852  Biso   1.000  He
  Ne140    1.0000 0.67444  0.80667  0.40597  Biso   1.000  Ne
  Ne141    1.0000 0.29628  0.39440  0.07473  Biso   1.000  Ne
  He141    1.0000 0.31381  0.37274  0.09840  Biso   1.000  He
  He142    1.0000 0.33836  0.35337  0.08395  Biso   1.000  He
  Ne142    1.0000 0.35656  0.33692  0.10547  Biso   1.000  Ne
  Ne143    1.0000 0.92813  0.94021  0.06107  Biso   1.000  Ne
  He143    1.0000 0.93334  0.92460  0.08896  Biso   1.000  He
  He144    1.0000 0.96042  0.90371  0.09070  Biso   1.000  He
  Ne144    1.0000 0.96837  0.88880  0.11969  Biso   1.000  Ne
  Ne145    1.0000 0.57313  0.43067  0.98509  Biso   1.000  Ne
  He145    1.0000 0.55398  0.45540  0.97558  Biso   1.000  He
  He146    1.0000 0.52136  0.44514  0.96944  Biso   1.000  He
  Ne146    1.0000 0.49943  0.46514  0.95509  Biso   1.000  Ne
  Ne147    1.0000 0.95002  0.30183  0.63368  Biso   1.000  Ne
  He147    1.0000 0.94576  0.26969  0.62019  Biso   1.000  He
  He148    1.0000 0.94663  0.26914  0.58740  Biso   1.000  He
  Ne148    1.0000 0.94625  0.24083  0.57260  Biso   1.000  Ne
  Ne149    1.0000 0.18464  0.38277  0.41727  Biso   1.000  Ne
  He149    1.0000 0.19751  0.35372  0.40384  Biso   1.000  He
  He150    1.0000 0.20511  0.35558  0.37175  Biso   1.000  He
  Ne150    1.0000 0.22473  0.33510  0.36102  Biso   1.000  Ne
  Ne151    1.0000 0.86891  0.29333  0.36637  Biso   1.000  Ne
  He151    1.0000 0.88723  0.29265  0.39242  Biso   1.000  He
  He152    1.0000 0.91831  0.30084  0.38734  Biso   1.000  He
  Ne152    1.0000 0.93671  0.29652  0.41145  Biso   1.000  Ne
  Ne153    1.0000 0.38304  0.80061  0.36262  Biso   1.000  Ne
  He153    1.0000 0.40689  0.81905  0.37813  Biso   1.000  He
  He154    1.0000 0.40515  0.82216  0.40975  Biso   1.000  He
  Ne154    1.0000 0.42607  0.84039  0.42462  Biso   1.000  Ne
  Ne155    1.0000 0.75644  0.07482  0.40961  Biso   1.000  Ne
  He155    1.0000 0.76188  0.10781  0.40452  Biso   1.000  He
  He156    1.0000 0.74749  0.12959  0.42396  Biso   1.000  He
  Ne156    1.0000 0.75252  0.16058  0.41835  Biso   1.000  Ne
  Ne157    1.0000 0.60946  0.21195  0.60280  Biso   1.000  Ne
  He157    1.0000 0.59658  0.23990  0.58726  Biso   1.000  He
  He158    1.0000 0.59263  0.23977  0.55407  Biso   1.000  He
  Ne158    1.0000 0.56008  0.24079  0.54621  Biso   1.000  Ne
  Ne159    1.0000 0.53517  0.88281  0.45330  Biso   1.000  Ne
  He159    1.0000 0.56881  0.88558  0.44974  Biso   1.000  He
  He160    1.0000 0.57970  0.88204  0.41788  Biso   1.000  He
  Ne160    1.0000 0.61304  0.88804  0.41551  Biso   1.000  Ne
  Ne161    1.0000 0.89469  0.35578  0.58719  Biso   1.000  Ne
  He161    1.0000 0.86936  0.37487  0.59610  Biso   1.000  He
  He162    1.0000 0.84779  0.37679  0.57070  Biso   1.000  He
  Ne162    1.0000 0.81775  0.39309  0.57932  Biso   1.000  Ne
  Ne163    1.0000 0.93439  0.66593  0.62377  Biso   1.000  Ne
  He163    1.0000 0.94433  0.69815  0.62069  Biso   1.000  He
  He164    1.0000 0.96365  0.70513  0.59534  Biso   1.000  He
  Ne164    1.0000 0.97096  0.73625  0.59176  Biso   1.000  Ne
  Ne165    1.0000 0.74934  0.59524  0.07875  Biso   1.000  Ne
  He165    1.0000 0.71707  0.59937  0.07907  Biso   1.000  He
  He166    1.0000 0.70040  0.57034  0.08251  Biso   1.000  He
  Ne166    1.0000 0.66740  0.57256  0.08214  Biso   1.000  Ne
  Ne167    1.0000 0.57172  0.07377  0.43611  Biso   1.000  Ne
  He167    1.0000 0.59769  0.06893  0.41606  Biso   1.000  He
  He168    1.0000 0.60501  0.03819  0.40891  Biso   1.000  He
  Ne168    1.0000 0.63513  0.03454  0.39559  Biso   1.000  Ne
  Ne169    1.0000 0.71279  0.05186  0.57587  Biso   1.000  Ne
  He169    1.0000 0.69450  0.06973  0.59570  Biso   1.000  He
  He170    1.0000 0.68367  0.09812  0.57797  Biso   1.000  He
  Ne170    1.0000 0.66345  0.11766  0.59697  Biso   1.000  Ne
  Ne171    1.0000 0.60128  0.34910  0.14138  Biso   1.000  Ne
  He171    1.0000 0.60799  0.37015  0.11722  Biso   1.000  He
  He172    1.0000 0.59383  0.36298  0.09003  Biso   1.000  He
  Ne172    1.0000 0.59829  0.38452  0.06555  Biso   1.000  Ne
  Ne173    1.0000 0.42699  0.82408  0.67134  Biso   1.000  Ne
  He173    1.0000 0.44141  0.81841  0.64172  Biso   1.000  He
  He174    1.0000 0.43979  0.78760  0.63260  Biso   1.000  He
  Ne174    1.0000 0.44843  0.78019  0.60273  Biso   1.000  Ne
  Ne175    1.0000 0.94899  0.77299  0.39234  Biso   1.000  Ne
  He175    1.0000 0.95744  0.76168  0.36166  Biso   1.000  He
  He176    1.0000 0.94010  0.77804  0.33921  Biso   1.000  He
  Ne176    1.0000 0.95175  0.77440  0.30702  Biso   1.000  Ne
  Ne177    1.0000 0.57641  0.52936  0.71615  Biso   1.000  Ne
  He177    1.0000 0.54391  0.52258  0.71575  Biso   1.000  He
  He178    1.0000 0.53729  0.49239  0.70434  Biso   1.000  He
  Ne178    1.0000 0.50613  0.48535  0.70071  Biso   1.000  Ne
  Ne179    1.0000 0.71063  0.61171  0.79176  Biso   1.000  Ne
  He179    1.0000 0.68820  0.59839  0.77142  Biso   1.000  He
  He180    1.0000 0.69678  0.57071  0.75869  Biso   1.000  He
  Ne180    1.0000 0.67903  0.56461  0.73145  Biso   1.000  Ne
