data_image0
_cell_length_a       46.9181
_cell_length_b       46.6983
_cell_length_c       46.5097
_cell_angle_alpha    90
_cell_angle_beta     90
_cell_angle_gamma    90

_symmetry_space_group_name_H-M    "P 1"
_symmetry_int_tables_number       1

loop_
  _symmetry_equiv_pos_as_xyz
  'x, y, z'

loop_
  _atom_site_label
  _atom_site_occupancy
  _atom_site_fract_x
  _atom_site_fract_y
  _atom_site_fract_z
  _atom_site_thermal_displace_type
  _atom_site_B_iso_or_equiv
  _atom_site_type_symbol
  Ne1      1.0000 0.93641  0.87948  0.80354  Biso   1.000  Ne
  He1      1.0000 0.94876  0.85495  0.82280  Biso   1.000  He
  He2      1.0000 0.93451  0.84834  0.85152  Biso   1.000  He
  Ne2      1.0000 0.95369  0.83355  0.87365  Biso   1.000  Ne
  Ne3      1.0000 0.70111  0.81166  0.58915  Biso   1.000  Ne
  He3      1.0000 0.71883  0.83406  0.57198  Biso   1.000  He
  He4      1.0000 0.72661  0.85953  0.59093  Biso   1.000  He
  Ne4      1.0000 0.74408  0.88103  0.57405  Biso   1.000  Ne
  Ne5      1.0000 0.44347  0.86088  0.71010  Biso   1.000  Ne
  He5      1.0000 0.42518  0.88180  0.69206  Biso   1.000  He
  He6      1.0000 0.39202  0.87220  0.68912  Biso   1.000  He
  Ne6      1.0000 0.37311  0.88883  0.66833  Biso   1.000  Ne
  Ne7      1.0000 0.11410  0.89237  0.09299  Biso   1.000  Ne
  He7      1.0000 0.12380  0.86234  0.10292  Biso   1.000  He
  He8      1.0000 0.11828  0.85425  0.13459  Biso   1.000  He
  Ne8      1.0000 0.12495  0.82333  0.14050  Biso   1.000  Ne
  Ne9      1.0000 0.02922  0.41453  0.51666  Biso   1.000  Ne
  He9      1.0000 0.05352  0.40083  0.49541  Biso   1.000  He
  He10     1.0000 0.04229  0.37803  0.47561  Biso   1.000  He
  Ne10     1.0000 0.06850  0.36385  0.45798  Biso   1.000  Ne
  Ne11     1.0000 0.86030  0.48924  0.10469  Biso   1.000  Ne
  He11     1.0000 0.83591  0.50413  0.12526  Biso   1.000  He
  He12     1.0000 0.81694  0.52990  0.11301  Biso   1.000  He
  Ne12     1.0000 0.78939  0.53815  0.12879  Biso   1.000  Ne
  Ne13     1.0000 0.43147  0.87192  0.37546  Biso   1.000  Ne
  He13     1.0000 0.40360  0.88826  0.36748  Biso   1.000  He
  He14     1.0000 0.38454  0.87205  0.34468  Biso   1.000  He
  Ne14     1.0000 0.35497  0.88910  0.33974  Biso   1.000  Ne
  Ne15     1.0000 0.37577  0.06011  0.33633  Biso   1.000  Ne
  He15     1.0000 0.39242  0.05456  0.36484  Biso   1.000  He
  He16     1.0000 0.42412  0.04743  0.36477  Biso   1.000  He
  Ne16     1.0000 0.43840  0.04077  0.39511  Biso   1.000  Ne
  Ne17     1.0000 0.44460  0.61838  0.84926  Biso   1.000  Ne
  He17     1.0000 0.44377  0.61190  0.88192  Biso   1.000  He
  He18     1.0000 0.43666  0.58266  0.89257  Biso   1.000  He
  Ne18     1.0000 0.43244  0.58351  0.92600  Biso   1.000  Ne
  Ne19     1.0000 0.87751  0.86322  0.11321  Biso   1.000  Ne
  He19     1.0000 0.85478  0.87801  0.09257  Biso   1.000  He
  He20     1.0000 0.82503  0.86624  0.09379  Biso   1.000  He
  Ne20     1.0000 0.80201  0.88476  0.07515  Biso   1.000  Ne
  Ne21     1.0000 0.12058  0.38518  0.67491  Biso   1.000  Ne
  He21     1.0000 0.15093  0.37175  0.68052  Biso   1.000  He
  He22     1.0000 0.17508  0.38134  0.65887  Biso   1.000  He
  Ne22     1.0000 0.20328  0.36724  0.66101  Biso   1.000  Ne
  Ne23     1.0000 0.38918  0.06468  0.74577  Biso   1.000  Ne
  He23     1.0000 0.41820  0.05615  0.73041  Biso   1.000  He
  He24     1.0000 0.44639  0.06956  0.74244  Biso   1.000  He
  Ne24     1.0000 0.47315  0.06524  0.72191  Biso   1.000  Ne
  Ne25     1.0000 0.90822  0.32414  0.44314  Biso   1.000  Ne
  He25     1.0000 0.91530  0.29248  0.44015  Biso   1.000  He
  He26     1.0000 0.92727  0.28348  0.41169  Biso   1.000  He
  Ne26     1.0000 0.90254  0.27645  0.38821  Biso   1.000  Ne
  Ne27     1.0000 0.34481  0.56121  0.80519  Biso   1.000  Ne
  He27     1.0000 0.32608  0.54164  0.82277  Biso   1.000  He
  He28     1.0000 0.29688  0.55263  0.83224  Biso   1.000  He
  Ne28     1.0000 0.27942  0.53060  0.84451  Biso   1.000  Ne
  Ne29     1.0000 0.90766  0.05900  0.93189  Biso   1.000  Ne
  He29     1.0000 0.90648  0.05952  0.89763  Biso   1.000  He
  He30     1.0000 0.90592  0.02800  0.88267  Biso   1.000  He
  Ne30     1.0000 0.90410  0.03163  0.84981  Biso   1.000  Ne
  Ne31     1.0000 0.29378  0.08229  0.37549  Biso   1.000  Ne
  He31     1.0000 0.28615  0.06894  0.40785  Biso   1.000  He
  He32     1.0000 0.30839  0.07605  0.43275  Biso   1.000  He
  Ne32     1.0000 0.29951  0.06281  0.46110  Biso   1.000  Ne
  Ne33     1.0000 0.09611  0.54416  0.65423  Biso   1.000  Ne
  He33     1.0000 0.12867  0.53602  0.64513  Biso   1.000  He
  He34     1.0000 0.14217  0.55150  0.61779  Biso   1.000  He
  Ne34     1.0000 0.17663  0.55021  0.61677  Biso   1.000  Ne
  Ne35     1.0000 0.60315  0.63875  0.13632  Biso   1.000  Ne
  He35     1.0000 0.63139  0.62767  0.13925  Biso   1.000  He
  He36     1.0000 0.65326  0.63841  0.11814  Biso   1.000  He
  Ne36     1.0000 0.68396  0.62566  0.11779  Biso   1.000  Ne
  Ne37     1.0000 0.44366  0.28645  0.11074  Biso   1.000  Ne
  He37     1.0000 0.44359  0.31802  0.11546  Biso   1.000  He
  He38     1.0000 0.42984  0.32867  0.14171  Biso   1.000  He
  Ne38     1.0000 0.43055  0.36096  0.14165  Biso   1.000  Ne
  Ne39     1.0000 0.11395  0.30412  0.42277  Biso   1.000  Ne
  He39     1.0000 0.09685  0.30285  0.39409  Biso   1.000  He
  He40     1.0000 0.10543  0.32811  0.37777  Biso   1.000  He
  Ne40     1.0000 0.08893  0.32804  0.35008  Biso   1.000  Ne
  Ne41     1.0000 0.86963  0.36658  0.60880  Biso   1.000  Ne
  He41     1.0000 0.83654  0.36233  0.60924  Biso   1.000  He
  He42     1.0000 0.82355  0.38980  0.59541  Biso   1.000  He
  Ne42     1.0000 0.78842  0.39212  0.59632  Biso   1.000  Ne
  Ne43     1.0000 0.70471  0.85516  0.71860  Biso   1.000  Ne
  He43     1.0000 0.70565  0.86264  0.74849  Biso   1.000  He
  He44     1.0000 0.73540  0.86866  0.76152  Biso   1.000  He
  Ne44     1.0000 0.73669  0.87887  0.79184  Biso   1.000  Ne
  Ne45     1.0000 0.98745  0.41686  0.42799  Biso   1.000  Ne
  He45     1.0000 0.95848  0.39902  0.43566  Biso   1.000  He
  He46     1.0000 0.93724  0.42016  0.44589  Biso   1.000  He
  Ne46     1.0000 0.90605  0.40803  0.45418  Biso   1.000  Ne
  Ne47     1.0000 0.73850  0.49138  0.63100  Biso   1.000  Ne
  He47     1.0000 0.71672  0.49990  0.60639  Biso   1.000  He
  He48     1.0000 0.71919  0.48200  0.57773  Biso   1.000  He
  Ne48     1.0000 0.69960  0.49166  0.55387  Biso   1.000  Ne
  Ne49     1.0000 0.45637  0.94495  0.55523  Biso   1.000  Ne
  He49     1.0000 0.46478  0.92678  0.58196  Biso   1.000  He
  He50     1.0000 0.45254  0.89933  0.58045  Biso   1.000  He
  Ne50     1.0000 0.45587  0.88444  0.61011  Biso   1.000  Ne
  Ne51     1.0000 0.83912  0.83898  0.51396  Biso   1.000  Ne
  He51     1.0000 0.84150  0.81539  0.53519  Biso   1.000  He
  He52     1.0000 0.81930  0.81854  0.55961  Biso   1.000  He
  Ne52     1.0000 0.81818  0.79499  0.58418  Biso   1.000  Ne
  Ne53     1.0000 0.68609  0.67926  0.94567  Biso   1.000  Ne
  He53     1.0000 0.67677  0.66839  0.91431  Biso   1.000  He
  He54     1.0000 0.66096  0.63816  0.91525  Biso   1.000  He
  Ne54     1.0000 0.65719  0.62660  0.88489  Biso   1.000  Ne
  Ne55     1.0000 0.37153  0.35069  0.07743  Biso   1.000  Ne
  He55     1.0000 0.34203  0.33768  0.08478  Biso   1.000  He
  He56     1.0000 0.31681  0.36068  0.08897  Biso   1.000  He
  Ne56     1.0000 0.28760  0.34657  0.09864  Biso   1.000  Ne
  Ne57     1.0000 0.96596  0.52066  0.62516  Biso   1.000  Ne
  He57     1.0000 0.96574  0.54554  0.60353  Biso   1.000  He
  He58     1.0000 0.95041  0.57277  0.61177  Biso   1.000  He
  Ne58     1.0000 0.95129  0.59626  0.58615  Biso   1.000  Ne
  Ne59     1.0000 0.38686  0.51486  0.22261  Biso   1.000  Ne
  He59     1.0000 0.40880  0.53530  0.21587  Biso   1.000  He
  He60     1.0000 0.40943  0.56015  0.23810  Biso   1.000  He
  Ne60     1.0000 0.42809  0.58519  0.22715  Biso   1.000  Ne
  Ne61     1.0000 0.00488  0.88360  0.94922  Biso   1.000  Ne
  He61     1.0000 0.97268  0.87302  0.94194  Biso   1.000  He
  He62     1.0000 0.94794  0.89714  0.94448  Biso   1.000  He
  Ne62     1.0000 0.91627  0.88724  0.93994  Biso   1.000  Ne
  Ne63     1.0000 0.94325  0.61319  0.68149  Biso   1.000  Ne
  He63     1.0000 0.93317  0.58516  0.69891  Biso   1.000  He
  He64     1.0000 0.90642  0.56770  0.68928  Biso   1.000  He
  Ne64     1.0000 0.90207  0.53841  0.70560  Biso   1.000  Ne
  Ne65     1.0000 0.35130  0.81326  0.60449  Biso   1.000  Ne
  He65     1.0000 0.38278  0.79722  0.60328  Biso   1.000  He
  He66     1.0000 0.40131  0.79628  0.63027  Biso   1.000  He
  Ne66     1.0000 0.43024  0.77989  0.63042  Biso   1.000  Ne
  Ne67     1.0000 0.21759  0.11949  0.10855  Biso   1.000  Ne
  He67     1.0000 0.20677  0.09012  0.12125  Biso   1.000  He
  He68     1.0000 0.22997  0.06716  0.13941  Biso   1.000  He
  Ne68     1.0000 0.22168  0.05999  0.17070  Biso   1.000  Ne
  Ne69     1.0000 0.13793  0.04569  0.93886  Biso   1.000  Ne
  He69     1.0000 0.10548  0.05068  0.94110  Biso   1.000  He
  He70     1.0000 0.09445  0.04722  0.97140  Biso   1.000  He
  Ne70     1.0000 0.06041  0.05319  0.97757  Biso   1.000  Ne
  Ne71     1.0000 0.94899  0.28903  0.74503  Biso   1.000  Ne
  He71     1.0000 0.95300  0.31223  0.71858  Biso   1.000  He
  He72     1.0000 0.93977  0.34061  0.72227  Biso   1.000  He
  Ne72     1.0000 0.94352  0.35990  0.69682  Biso   1.000  Ne
  Ne73     1.0000 0.55442  0.88953  0.59085  Biso   1.000  Ne
  He73     1.0000 0.57908  0.89021  0.56890  Biso   1.000  He
  He74     1.0000 0.59022  0.91968  0.56143  Biso   1.000  He
  Ne74     1.0000 0.61698  0.92033  0.53992  Biso   1.000  Ne
  Ne75     1.0000 0.61225  0.56537  0.88350  Biso   1.000  Ne
  He75     1.0000 0.63058  0.55754  0.90866  Biso   1.000  He
  He76     1.0000 0.61274  0.54744  0.93636  Biso   1.000  He
  Ne76     1.0000 0.63517  0.53518  0.95930  Biso   1.000  Ne
  Ne77     1.0000 0.21320  0.86180  0.94703  Biso   1.000  Ne
  He77     1.0000 0.21236  0.87261  0.91488  Biso   1.000  He
  He78     1.0000 0.18333  0.87808  0.90286  Biso   1.000  He
  Ne78     1.0000 0.18057  0.88219  0.87060  Biso   1.000  Ne
  Ne79     1.0000 0.55724  0.06399  0.54303  Biso   1.000  Ne
  He79     1.0000 0.54392  0.03681  0.52842  Biso   1.000  He
  He80     1.0000 0.51636  0.02808  0.53826  Biso   1.000  He
  Ne80     1.0000 0.48875  0.04318  0.52584  Biso   1.000  Ne
  Ne81     1.0000 0.58833  0.63875  0.24602  Biso   1.000  Ne
  He81     1.0000 0.58510  0.60737  0.25070  Biso   1.000  He
  He82     1.0000 0.60677  0.59593  0.27613  Biso   1.000  He
  Ne82     1.0000 0.60422  0.56310  0.27763  Biso   1.000  Ne
  Ne83     1.0000 0.34854  0.07140  0.85718  Biso   1.000  Ne
  He83     1.0000 0.32960  0.06779  0.82928  Biso   1.000  He
  He84     1.0000 0.33051  0.09033  0.80807  Biso   1.000  He
  Ne84     1.0000 0.30719  0.08286  0.78478  Biso   1.000  Ne
  Ne85     1.0000 0.16708  0.52057  0.34530  Biso   1.000  Ne
  He85     1.0000 0.15310  0.54095  0.36842  Biso   1.000  He
  He86     1.0000 0.16988  0.56366  0.37843  Biso   1.000  He
  Ne86     1.0000 0.15283  0.58518  0.39866  Biso   1.000  Ne
  Ne87     1.0000 0.93577  0.02698  0.10401  Biso   1.000  Ne
  He87     1.0000 0.92149  0.05722  0.10687  Biso   1.000  He
  He88     1.0000 0.91244  0.06937  0.07741  Biso   1.000  He
  Ne88     1.0000 0.90085  0.09939  0.08314  Biso   1.000  Ne
  Ne89     1.0000 0.48483  0.04968  0.60661  Biso   1.000  Ne
  He89     1.0000 0.45451  0.06070  0.61051  Biso   1.000  He
  He90     1.0000 0.43126  0.03954  0.61329  Biso   1.000  He
  Ne90     1.0000 0.40026  0.05186  0.61273  Biso   1.000  Ne
  Ne91     1.0000 0.89840  0.55025  0.42108  Biso   1.000  Ne
  He91     1.0000 0.88854  0.57969  0.42227  Biso   1.000  He
  He92     1.0000 0.91082  0.60530  0.41791  Biso   1.000  He
  Ne92     1.0000 0.89828  0.63360  0.42737  Biso   1.000  Ne
  Ne93     1.0000 0.60984  0.85403  0.67339  Biso   1.000  Ne
  He93     1.0000 0.59991  0.85984  0.70449  Biso   1.000  He
  He94     1.0000 0.62436  0.85986  0.72516  Biso   1.000  He
  Ne94     1.0000 0.61626  0.87222  0.75769  Biso   1.000  Ne
  Ne95     1.0000 0.10658  0.10972  0.84205  Biso   1.000  Ne
  He95     1.0000 0.10908  0.10799  0.87660  Biso   1.000  He
  He96     1.0000 0.10810  0.13837  0.89363  Biso   1.000  He
  Ne96     1.0000 0.10658  0.13583  0.92665  Biso   1.000  Ne
  Ne97     1.0000 0.92846  0.87955  0.06109  Biso   1.000  Ne
  He97     1.0000 0.95632  0.89634  0.06364  Biso   1.000  He
  He98     1.0000 0.96663  0.89572  0.09431  Biso   1.000  He
  Ne98     1.0000 0.99416  0.91137  0.10130  Biso   1.000  Ne
  Ne99     1.0000 0.39023  0.81742  0.42808  Biso   1.000  Ne
  He99     1.0000 0.35902  0.80534  0.42572  Biso   1.000  He
  He100    1.0000 0.33381  0.82631  0.41714  Biso   1.000  He
  Ne100    1.0000 0.30083  0.81211  0.41827  Biso   1.000  Ne
  Ne101    1.0000 0.14982  0.05931  0.19628  Biso   1.000  Ne
  He101    1.0000 0.11659  0.05961  0.18514  Biso   1.000  He
  He102    1.0000 0.11455  0.04812  0.15213  Biso   1.000  He
  Ne102    1.0000 0.08352  0.04858  0.13973  Biso   1.000  Ne
  Ne103    1.0000 0.60535  0.03922  0.40936  Biso   1.000  Ne
  He103    1.0000 0.62567  0.04315  0.38565  Biso   1.000  He
  He104    1.0000 0.61462  0.06015  0.35800  Biso   1.000  He
  Ne104    1.0000 0.63385  0.05906  0.33177  Biso   1.000  Ne
  Ne105    1.0000 0.07713  0.56018  0.47204  Biso   1.000  Ne
  He105    1.0000 0.08631  0.53021  0.46431  Biso   1.000  He
  He106    1.0000 0.11627  0.52185  0.47839  Biso   1.000  He
  Ne106    1.0000 0.12735  0.49368  0.46788  Biso   1.000  Ne
  Ne107    1.0000 0.59114  0.55905  0.09699  Biso   1.000  Ne
  He107    1.0000 0.61795  0.54149  0.09991  Biso   1.000  He
  He108    1.0000 0.64446  0.55915  0.08854  Biso   1.000  He
  Ne108    1.0000 0.67269  0.54214  0.09411  Biso   1.000  Ne
  Ne109    1.0000 0.49697  0.87777  0.49257  Biso   1.000  Ne
  He109    1.0000 0.46414  0.88573  0.48827  Biso   1.000  He
  He110    1.0000 0.45018  0.88028  0.45813  Biso   1.000  He
  Ne110    1.0000 0.42087  0.88829  0.45757  Biso   1.000  Ne
  Ne111    1.0000 0.12040  0.82379  0.87851  Biso   1.000  Ne
  He111    1.0000 0.11867  0.80247  0.85491  Biso   1.000  He
  He112    1.0000 0.12163  0.81472  0.82437  Biso   1.000  He
  Ne112    1.0000 0.12004  0.79021  0.79944  Biso   1.000  Ne
  Ne113    1.0000 0.59798  0.86135  0.37303  Biso   1.000  Ne
  He113    1.0000 0.62128  0.86745  0.35121  Biso   1.000  He
  He114    1.0000 0.62416  0.84835  0.32498  Biso   1.000  He
  Ne114    1.0000 0.64958  0.85319  0.30322  Biso   1.000  Ne
  Ne115    1.0000 0.84082  0.59274  0.58875  Biso   1.000  Ne
  He115    1.0000 0.84121  0.62640  0.58618  Biso   1.000  He
  He116    1.0000 0.86006  0.64155  0.61113  Biso   1.000  He
  Ne116    1.0000 0.86332  0.67298  0.60783  Biso   1.000  Ne
  Ne117    1.0000 0.36741  0.15929  0.45975  Biso   1.000  Ne
  He117    1.0000 0.39743  0.14904  0.44910  Biso   1.000  He
  He118    1.0000 0.40142  0.11483  0.44417  Biso   1.000  He
  Ne118    1.0000 0.43300  0.10723  0.43688  Biso   1.000  Ne
  Ne119    1.0000 0.95603  0.63284  0.30607  Biso   1.000  Ne
  He119    1.0000 0.95110  0.60068  0.30265  Biso   1.000  He
  He120    1.0000 0.96015  0.58621  0.32920  Biso   1.000  He
  Ne120    1.0000 0.95812  0.55141  0.33160  Biso   1.000  Ne
  Ne121    1.0000 0.08147  0.95151  0.05253  Biso   1.000  Ne
  He121    1.0000 0.06523  0.97987  0.06244  Biso   1.000  He
  He122    1.0000 0.06380  0.00365  0.03968  Biso   1.000  He
  Ne122    1.0000 0.05307  0.03334  0.05272  Biso   1.000  Ne
  Ne123    1.0000 0.61615  0.32106  0.90668  Biso   1.000  Ne
  He123    1.0000 0.61282  0.35384  0.91633  Biso   1.000  He
  He124    1.0000 0.64292  0.37176  0.90902  Biso   1.000  He
  Ne124    1.0000 0.64335  0.39832  0.92785  Biso   1.000  Ne
  Ne125    1.0000 0.09796  0.55399  0.73428  Biso   1.000  Ne
  He125    1.0000 0.11351  0.58374  0.73564  Biso   1.000  He
  He126    1.0000 0.12263  0.59454  0.70594  Biso   1.000  He
  Ne126    1.0000 0.13841  0.62306  0.70436  Biso   1.000  Ne
  Ne127    1.0000 0.41603  0.37418  0.93371  Biso   1.000  Ne
  He127    1.0000 0.40846  0.35495  0.90767  Biso   1.000  He
  He128    1.0000 0.41610  0.36586  0.87613  Biso   1.000  He
  Ne128    1.0000 0.40713  0.34396  0.85283  Biso   1.000  Ne
  Ne129    1.0000 0.98906  0.00777  0.93542  Biso   1.000  Ne
  He129    1.0000 0.98315  0.02143  0.96480  Biso   1.000  He
  He130    1.0000 0.96018  0.00739  0.97978  Biso   1.000  He
  Ne130    1.0000 0.95516  0.02368  0.00888  Biso   1.000  Ne
  Ne131    1.0000 0.77479  0.09011  0.87082  Biso   1.000  Ne
  He131    1.0000 0.78509  0.06098  0.88445  Biso   1.000  He
  He132    1.0000 0.81692  0.05407  0.88643  Biso   1.000  He
  Ne132    1.0000 0.82189  0.02501  0.89831  Biso   1.000  Ne
  Ne133    1.0000 0.44215  0.57511  0.14593  Biso   1.000  Ne
  He133    1.0000 0.44389  0.60735  0.14534  Biso   1.000  He
  He134    1.0000 0.42939  0.61934  0.11804  Biso   1.000  He
  Ne134    1.0000 0.42999  0.65284  0.11244  Biso   1.000  Ne
  Ne135    1.0000 0.31766  0.30979  0.18243  Biso   1.000  Ne
  He135    1.0000 0.33639  0.31938  0.21151  Biso   1.000  He
  He136    1.0000 0.31867  0.32203  0.23732  Biso   1.000  He
  Ne136    1.0000 0.32956  0.33855  0.26323  Biso   1.000  Ne
  Ne137    1.0000 0.66829  0.05257  0.59354  Biso   1.000  Ne
  He137    1.0000 0.65307  0.06090  0.62500  Biso   1.000  He
  He138    1.0000 0.65783  0.03901  0.64696  Biso   1.000  He
  Ne138    1.0000 0.64449  0.05133  0.67741  Biso   1.000  Ne
  Ne139    1.0000 0.61660  0.79489  0.42010  Biso   1.000  Ne
  He139    1.0000 0.64741  0.79639  0.41571  Biso   1.000  He
  He140    1.0000 0.66060  0.82645  0.42053  Biso   1.000  He
  Ne140    1.0000 0.69310  0.82826  0.42083  Biso   1.000  Ne
