data_image0
_cell_length_a       46.5833
_cell_length_b       46.7227
_cell_length_c       46.4146
_cell_angle_alpha    90
_cell_angle_beta     90
_cell_angle_gamma    90

_symmetry_space_group_name_H-M    "P 1"
_symmetry_int_tables_number       1

loop_
  _symmetry_equiv_pos_as_xyz
  'x, y, z'

loop_
  _atom_site_label
  _atom_site_occupancy
  _atom_site_fract_x
  _atom_site_fract_y
  _atom_site_fract_z
  _atom_site_thermal_displace_type
  _atom_site_B_iso_or_equiv
  _atom_site_type_symbol
  Ne1      1.0000 0.96470  0.82295  0.82960  Biso   1.000  Ne
  He1      1.0000 0.94810  0.81120  0.85638  Biso   1.000  He
  He2      1.0000 0.96731  0.81238  0.88258  Biso   1.000  He
  Ne2      1.0000 0.95896  0.79102  0.90866  Biso   1.000  Ne
  Ne3      1.0000 0.10585  0.06655  0.09316  Biso   1.000  Ne
  He3      1.0000 0.10543  0.09879  0.09756  Biso   1.000  He
  He4      1.0000 0.07831  0.11453  0.08952  Biso   1.000  He
  Ne4      1.0000 0.08043  0.14582  0.09688  Biso   1.000  Ne
  Ne5      1.0000 0.59748  0.85536  0.40390  Biso   1.000  Ne
  He5      1.0000 0.60123  0.83851  0.43136  Biso   1.000  He
  He6      1.0000 0.61610  0.80926  0.42587  Biso   1.000  He
  Ne6      1.0000 0.61711  0.78690  0.45327  Biso   1.000  Ne
  Ne7      1.0000 0.27542  0.91887  0.31502  Biso   1.000  Ne
  He7      1.0000 0.26426  0.91164  0.28322  Biso   1.000  He
  He8      1.0000 0.24409  0.93198  0.26669  Biso   1.000  He
  Ne8      1.0000 0.24048  0.91946  0.23303  Biso   1.000  Ne
  Ne9      1.0000 0.03819  0.95433  0.10577  Biso   1.000  Ne
  He9      1.0000 0.06320  0.93459  0.09795  Biso   1.000  He
  He10     1.0000 0.09029  0.94854  0.10487  Biso   1.000  He
  Ne10     1.0000 0.11896  0.93091  0.10023  Biso   1.000  Ne
  Ne11     1.0000 0.94255  0.59112  0.36340  Biso   1.000  Ne
  He11     1.0000 0.94293  0.61835  0.34932  Biso   1.000  He
  He12     1.0000 0.93234  0.64238  0.36794  Biso   1.000  He
  Ne12     1.0000 0.93372  0.67097  0.35290  Biso   1.000  Ne
  Ne13     1.0000 0.16863  0.74927  0.92992  Biso   1.000  Ne
  He13     1.0000 0.16483  0.78377  0.93071  Biso   1.000  He
  He14     1.0000 0.13218  0.79058  0.94142  Biso   1.000  He
  Ne14     1.0000 0.12530  0.82053  0.94442  Biso   1.000  Ne
  Ne15     1.0000 0.69099  0.83292  0.37774  Biso   1.000  Ne
  He15     1.0000 0.70439  0.85917  0.39270  Biso   1.000  He
  He16     1.0000 0.68037  0.87900  0.40422  Biso   1.000  He
  Ne16     1.0000 0.69507  0.90463  0.42483  Biso   1.000  Ne
  Ne17     1.0000 0.25484  0.41947  0.36389  Biso   1.000  Ne
  He17     1.0000 0.24818  0.41289  0.39606  Biso   1.000  He
  He18     1.0000 0.25648  0.43689  0.42008  Biso   1.000  He
  Ne18     1.0000 0.25057  0.43157  0.45214  Biso   1.000  Ne
  Ne19     1.0000 0.05025  0.13340  0.71974  Biso   1.000  Ne
  He19     1.0000 0.07837  0.13869  0.70212  Biso   1.000  He
  He20     1.0000 0.09064  0.17236  0.70357  Biso   1.000  He
  Ne20     1.0000 0.11791  0.17449  0.68330  Biso   1.000  Ne
  Ne21     1.0000 0.91108  0.91000  0.91557  Biso   1.000  Ne
  He21     1.0000 0.89190  0.88203  0.91623  Biso   1.000  He
  He22     1.0000 0.86446  0.89235  0.92300  Biso   1.000  He
  Ne22     1.0000 0.83998  0.86805  0.92423  Biso   1.000  Ne
  Ne23     1.0000 0.34341  0.60185  0.10715  Biso   1.000  Ne
  He23     1.0000 0.34469  0.61894  0.13872  Biso   1.000  He
  He24     1.0000 0.35459  0.59570  0.16104  Biso   1.000  He
  Ne24     1.0000 0.35989  0.60925  0.19122  Biso   1.000  Ne
  Ne25     1.0000 0.95776  0.63824  0.71143  Biso   1.000  Ne
  He25     1.0000 0.96437  0.65930  0.68765  Biso   1.000  He
  He26     1.0000 0.95018  0.65054  0.65802  Biso   1.000  He
  Ne26     1.0000 0.96099  0.67178  0.63597  Biso   1.000  Ne
  Ne27     1.0000 0.35885  0.18982  0.41743  Biso   1.000  Ne
  He27     1.0000 0.32928  0.18988  0.42596  Biso   1.000  He
  He28     1.0000 0.30634  0.20512  0.40773  Biso   1.000  He
  Ne28     1.0000 0.27512  0.19970  0.41563  Biso   1.000  Ne
  Ne29     1.0000 0.41128  0.90277  0.28499  Biso   1.000  Ne
  He29     1.0000 0.41435  0.92868  0.30415  Biso   1.000  He
  He30     1.0000 0.40320  0.92123  0.33466  Biso   1.000  He
  Ne30     1.0000 0.41727  0.93939  0.35789  Biso   1.000  Ne
  Ne31     1.0000 0.75663  0.88548  0.28997  Biso   1.000  Ne
  He31     1.0000 0.76807  0.88505  0.32203  Biso   1.000  He
  He32     1.0000 0.77646  0.91459  0.33787  Biso   1.000  He
  Ne32     1.0000 0.78228  0.91069  0.37171  Biso   1.000  Ne
  Ne33     1.0000 0.30680  0.14169  0.30064  Biso   1.000  Ne
  He33     1.0000 0.33561  0.14117  0.31756  Biso   1.000  He
  He34     1.0000 0.35281  0.11466  0.31310  Biso   1.000  He
  Ne34     1.0000 0.38271  0.11363  0.32902  Biso   1.000  Ne
  Ne35     1.0000 0.59811  0.33397  0.65095  Biso   1.000  Ne
  He35     1.0000 0.56886  0.31953  0.63622  Biso   1.000  He
  He36     1.0000 0.55009  0.30380  0.66045  Biso   1.000  He
  Ne36     1.0000 0.52460  0.28889  0.64878  Biso   1.000  Ne
  Ne37     1.0000 0.58075  0.40884  0.24562  Biso   1.000  Ne
  He37     1.0000 0.59676  0.38557  0.22916  Biso   1.000  He
  He38     1.0000 0.58146  0.35647  0.21992  Biso   1.000  He
  Ne38     1.0000 0.59913  0.33495  0.20513  Biso   1.000  Ne
  Ne39     1.0000 0.93546  0.34056  0.41541  Biso   1.000  Ne
  He39     1.0000 0.91480  0.31421  0.42376  Biso   1.000  He
  He40     1.0000 0.92758  0.29148  0.44401  Biso   1.000  He
  Ne40     1.0000 0.90607  0.27020  0.45331  Biso   1.000  Ne
  Ne41     1.0000 0.66148  0.15776  0.41175  Biso   1.000  Ne
  He41     1.0000 0.67199  0.12894  0.39788  Biso   1.000  He
  He42     1.0000 0.67046  0.10472  0.41937  Biso   1.000  He
  Ne42     1.0000 0.68057  0.07335  0.40809  Biso   1.000  Ne
  Ne43     1.0000 0.60970  0.59192  0.20235  Biso   1.000  Ne
  He43     1.0000 0.60686  0.61413  0.17809  Biso   1.000  He
  He44     1.0000 0.61311  0.64542  0.18583  Biso   1.000  He
  Ne44     1.0000 0.61617  0.66758  0.16154  Biso   1.000  Ne
  Ne45     1.0000 0.16939  0.43015  0.44436  Biso   1.000  Ne
  He45     1.0000 0.13755  0.41949  0.45282  Biso   1.000  He
  He46     1.0000 0.12956  0.39123  0.43480  Biso   1.000  He
  Ne46     1.0000 0.10291  0.37843  0.44456  Biso   1.000  Ne
  Ne47     1.0000 0.41566  0.05777  0.47128  Biso   1.000  Ne
  He47     1.0000 0.43665  0.06118  0.49782  Biso   1.000  He
  He48     1.0000 0.46558  0.07596  0.48712  Biso   1.000  He
  Ne48     1.0000 0.49057  0.07921  0.50568  Biso   1.000  Ne
  Ne49     1.0000 0.97702  0.72909  0.79841  Biso   1.000  Ne
  He49     1.0000 0.96752  0.70485  0.77645  Biso   1.000  He
  He50     1.0000 0.95531  0.67839  0.79240  Biso   1.000  He
  Ne50     1.0000 0.97664  0.65444  0.78825  Biso   1.000  Ne
  Ne51     1.0000 0.04307  0.00341  0.94567  Biso   1.000  Ne
  He51     1.0000 0.06165  0.01825  0.97088  Biso   1.000  He
  He52     1.0000 0.09334  0.01989  0.96612  Biso   1.000  He
  Ne52     1.0000 0.11186  0.03568  0.98846  Biso   1.000  Ne
  Ne53     1.0000 0.88787  0.60065  0.59088  Biso   1.000  Ne
  He53     1.0000 0.86867  0.59946  0.61974  Biso   1.000  He
  He54     1.0000 0.83640  0.60308  0.61479  Biso   1.000  He
  Ne54     1.0000 0.82262  0.59618  0.64463  Biso   1.000  Ne
  Ne55     1.0000 0.92483  0.90755  0.15799  Biso   1.000  Ne
  He55     1.0000 0.93896  0.87813  0.16662  Biso   1.000  He
  He56     1.0000 0.92389  0.86270  0.19036  Biso   1.000  He
  Ne56     1.0000 0.93386  0.83144  0.19718  Biso   1.000  Ne
  Ne57     1.0000 0.45649  0.42637  0.02616  Biso   1.000  Ne
  He57     1.0000 0.47564  0.42559  0.99889  Biso   1.000  He
  He58     1.0000 0.50306  0.44126  0.00602  Biso   1.000  He
  Ne58     1.0000 0.52809  0.43613  0.98081  Biso   1.000  Ne
  Ne59     1.0000 0.56732  0.08505  0.24049  Biso   1.000  Ne
  He59     1.0000 0.57359  0.10587  0.26451  Biso   1.000  He
  He60     1.0000 0.57987  0.09375  0.29518  Biso   1.000  He
  Ne60     1.0000 0.59418  0.11141  0.31868  Biso   1.000  Ne
  Ne61     1.0000 0.93773  0.56870  0.27530  Biso   1.000  Ne
  He61     1.0000 0.91243  0.56351  0.25517  Biso   1.000  He
  He62     1.0000 0.88035  0.56887  0.26455  Biso   1.000  He
  Ne62     1.0000 0.85943  0.55611  0.24165  Biso   1.000  Ne
  Ne63     1.0000 0.61852  0.93067  0.46661  Biso   1.000  Ne
  He63     1.0000 0.58598  0.93902  0.46659  Biso   1.000  He
  He64     1.0000 0.56735  0.92713  0.44025  Biso   1.000  He
  Ne64     1.0000 0.53134  0.93223  0.44328  Biso   1.000  Ne
  Ne65     1.0000 0.12218  0.58875  0.36738  Biso   1.000  Ne
  He65     1.0000 0.12199  0.59193  0.40247  Biso   1.000  He
  He66     1.0000 0.09593  0.61147  0.41613  Biso   1.000  He
  Ne66     1.0000 0.10132  0.62058  0.44731  Biso   1.000  Ne
  Ne67     1.0000 0.87581  0.68964  0.97392  Biso   1.000  Ne
  He67     1.0000 0.84722  0.67503  0.96734  Biso   1.000  He
  He68     1.0000 0.82615  0.69028  0.94703  Biso   1.000  He
  Ne68     1.0000 0.79804  0.67190  0.94001  Biso   1.000  Ne
  Ne69     1.0000 0.81521  0.75881  0.86992  Biso   1.000  Ne
  He69     1.0000 0.81381  0.78755  0.85446  Biso   1.000  He
  He70     1.0000 0.81073  0.81378  0.87159  Biso   1.000  He
  Ne70     1.0000 0.81595  0.83952  0.85092  Biso   1.000  Ne
  Ne71     1.0000 0.74459  0.44360  0.69007  Biso   1.000  Ne
  He71     1.0000 0.76500  0.41864  0.69587  Biso   1.000  He
  He72     1.0000 0.78194  0.41993  0.72379  Biso   1.000  He
  Ne72     1.0000 0.80022  0.39388  0.72615  Biso   1.000  Ne
  Ne73     1.0000 0.55333  0.44299  0.09525  Biso   1.000  Ne
  He73     1.0000 0.56179  0.42373  0.11975  Biso   1.000  He
  He74     1.0000 0.59510  0.41680  0.12090  Biso   1.000  He
  Ne74     1.0000 0.60724  0.39826  0.14433  Biso   1.000  Ne
  Ne75     1.0000 0.76747  0.76846  0.62496  Biso   1.000  Ne
  He75     1.0000 0.73644  0.76903  0.63258  Biso   1.000  He
  He76     1.0000 0.71552  0.76929  0.60583  Biso   1.000  He
  Ne76     1.0000 0.68289  0.76394  0.61425  Biso   1.000  Ne
  Ne77     1.0000 0.16558  0.72474  0.41335  Biso   1.000  Ne
  He77     1.0000 0.17403  0.73988  0.38325  Biso   1.000  He
  He78     1.0000 0.20026  0.76328  0.38856  Biso   1.000  He
  Ne78     1.0000 0.20549  0.77517  0.35815  Biso   1.000  Ne
  Ne79     1.0000 0.08997  0.84725  0.10959  Biso   1.000  Ne
  He79     1.0000 0.11466  0.84255  0.13137  Biso   1.000  He
  He80     1.0000 0.14397  0.84620  0.11836  Biso   1.000  He
  Ne80     1.0000 0.17260  0.83660  0.13890  Biso   1.000  Ne
  Ne81     1.0000 0.44569  0.74015  0.93546  Biso   1.000  Ne
  He81     1.0000 0.42122  0.72170  0.94713  Biso   1.000  He
  He82     1.0000 0.41247  0.69660  0.92878  Biso   1.000  He
  Ne82     1.0000 0.39408  0.67587  0.94411  Biso   1.000  Ne
  Ne83     1.0000 0.65575  0.58159  0.92116  Biso   1.000  Ne
  He83     1.0000 0.68898  0.58032  0.91887  Biso   1.000  He
  He84     1.0000 0.70208  0.60457  0.93807  Biso   1.000  He
  Ne84     1.0000 0.73591  0.60832  0.93807  Biso   1.000  Ne
  Ne85     1.0000 0.40626  0.43371  0.19454  Biso   1.000  Ne
  He85     1.0000 0.42084  0.40381  0.18788  Biso   1.000  He
  He86     1.0000 0.40536  0.37758  0.20164  Biso   1.000  He
  Ne86     1.0000 0.42436  0.36128  0.22567  Biso   1.000  Ne
  Ne87     1.0000 0.40644  0.15375  0.69549  Biso   1.000  Ne
  He87     1.0000 0.41146  0.12061  0.69503  Biso   1.000  He
  He88     1.0000 0.44315  0.11037  0.69431  Biso   1.000  He
  Ne88     1.0000 0.44512  0.07745  0.69243  Biso   1.000  Ne
  Ne89     1.0000 0.36301  0.90693  0.66219  Biso   1.000  Ne
  He89     1.0000 0.33846  0.88855  0.64557  Biso   1.000  He
  He90     1.0000 0.34799  0.85720  0.63893  Biso   1.000  He
  Ne90     1.0000 0.32387  0.84200  0.61985  Biso   1.000  Ne
  Ne91     1.0000 0.40424  0.84784  0.37208  Biso   1.000  Ne
  He91     1.0000 0.41610  0.83584  0.40145  Biso   1.000  He
  He92     1.0000 0.43497  0.80863  0.40012  Biso   1.000  He
  Ne92     1.0000 0.44610  0.79804  0.42811  Biso   1.000  Ne
  Ne93     1.0000 0.36744  0.58659  0.94261  Biso   1.000  Ne
  He93     1.0000 0.40044  0.58158  0.94229  Biso   1.000  He
  He94     1.0000 0.41638  0.60531  0.96205  Biso   1.000  He
  Ne94     1.0000 0.44942  0.60328  0.96195  Biso   1.000  Ne
  Ne95     1.0000 0.98569  0.42071  0.58081  Biso   1.000  Ne
  He95     1.0000 0.98595  0.45345  0.57459  Biso   1.000  He
  He96     1.0000 0.00827  0.47319  0.59213  Biso   1.000  He
  Ne96     1.0000 0.00819  0.50414  0.58398  Biso   1.000  Ne
  Ne97     1.0000 0.94264  0.28314  0.62108  Biso   1.000  Ne
  He97     1.0000 0.93495  0.30896  0.64096  Biso   1.000  He
  He98     1.0000 0.92758  0.33300  0.62086  Biso   1.000  He
  Ne98     1.0000 0.91643  0.35593  0.63841  Biso   1.000  Ne
  Ne99     1.0000 0.60285  0.01958  0.50743  Biso   1.000  Ne
  He99     1.0000 0.59206  0.02387  0.47653  Biso   1.000  He
  He100    1.0000 0.61047  0.04363  0.46088  Biso   1.000  He
  Ne100    1.0000 0.60138  0.05401  0.43045  Biso   1.000  Ne
  Ne101    1.0000 0.26641  0.10196  0.46211  Biso   1.000  Ne
  He101    1.0000 0.29862  0.10742  0.45513  Biso   1.000  He
  He102    1.0000 0.30213  0.10770  0.42107  Biso   1.000  He
  Ne102    1.0000 0.33410  0.10542  0.41481  Biso   1.000  Ne
  Ne103    1.0000 0.08172  0.14362  0.18773  Biso   1.000  Ne
  He103    1.0000 0.08468  0.11675  0.20356  Biso   1.000  He
  He104    1.0000 0.07017  0.11629  0.23259  Biso   1.000  He
  Ne104    1.0000 0.06995  0.08743  0.24615  Biso   1.000  Ne
  Ne105    1.0000 0.13752  0.75939  0.11240  Biso   1.000  Ne
  He105    1.0000 0.11831  0.75067  0.13622  Biso   1.000  He
  He106    1.0000 0.10844  0.71951  0.13280  Biso   1.000  He
  Ne106    1.0000 0.09025  0.71326  0.15754  Biso   1.000  Ne
  Ne107    1.0000 0.51028  0.99987  0.60921  Biso   1.000  Ne
  He107    1.0000 0.53053  0.02471  0.60045  Biso   1.000  He
  He108    1.0000 0.54460  0.02525  0.57252  Biso   1.000  He
  Ne108    1.0000 0.56322  0.05212  0.56768  Biso   1.000  Ne
  Ne109    1.0000 0.02522  0.53761  0.50739  Biso   1.000  Ne
  He109    1.0000 0.03882  0.53048  0.48124  Biso   1.000  He
  He110    1.0000 0.04997  0.50003  0.47815  Biso   1.000  He
  Ne110    1.0000 0.06180  0.49124  0.44791  Biso   1.000  Ne
  Ne111    1.0000 0.88951  0.40759  0.42588  Biso   1.000  Ne
  He111    1.0000 0.85984  0.40331  0.41525  Biso   1.000  He
  He112    1.0000 0.84031  0.38929  0.43584  Biso   1.000  He
  Ne112    1.0000 0.81204  0.39294  0.42419  Biso   1.000  Ne
  Ne113    1.0000 0.93462  0.81525  0.08151  Biso   1.000  Ne
  He113    1.0000 0.90599  0.82792  0.09584  Biso   1.000  He
  He114    1.0000 0.88109  0.83508  0.07500  Biso   1.000  He
  Ne114    1.0000 0.85791  0.85156  0.09026  Biso   1.000  Ne
  Ne115    1.0000 0.43626  0.20673  0.31107  Biso   1.000  Ne
  He115    1.0000 0.43222  0.19245  0.28256  Biso   1.000  He
  He116    1.0000 0.46051  0.19109  0.26468  Biso   1.000  He
  Ne116    1.0000 0.45747  0.17100  0.24031  Biso   1.000  Ne
  Ne117    1.0000 0.88958  0.07530  0.24145  Biso   1.000  Ne
  He117    1.0000 0.88330  0.07565  0.20918  Biso   1.000  He
  He118    1.0000 0.90777  0.09059  0.19267  Biso   1.000  He
  Ne118    1.0000 0.90570  0.09448  0.15954  Biso   1.000  Ne
  Ne119    1.0000 0.90681  0.19758  0.92337  Biso   1.000  Ne
  He119    1.0000 0.90785  0.16443  0.91346  Biso   1.000  He
  He120    1.0000 0.87977  0.14718  0.91387  Biso   1.000  He
  Ne120    1.0000 0.88320  0.11767  0.90054  Biso   1.000  Ne
  Ne121    1.0000 0.14386  0.68315  0.61131  Biso   1.000  Ne
  He121    1.0000 0.15141  0.66067  0.63398  Biso   1.000  He
  He122    1.0000 0.12371  0.65868  0.65324  Biso   1.000  He
  Ne122    1.0000 0.12411  0.63387  0.67487  Biso   1.000  Ne
  Ne123    1.0000 0.10710  0.40577  0.62806  Biso   1.000  Ne
  He123    1.0000 0.10424  0.42575  0.60162  Biso   1.000  He
  He124    1.0000 0.07749  0.41992  0.58626  Biso   1.000  He
  Ne124    1.0000 0.06997  0.43982  0.56110  Biso   1.000  Ne
  Ne125    1.0000 0.43860  0.25707  0.68351  Biso   1.000  Ne
  He125    1.0000 0.41887  0.24919  0.70876  Biso   1.000  He
  He126    1.0000 0.43478  0.24618  0.73769  Biso   1.000  He
  Ne126    1.0000 0.41426  0.24021  0.76149  Biso   1.000  Ne
  Ne127    1.0000 0.88622  0.43295  0.67277  Biso   1.000  Ne
  He127    1.0000 0.86567  0.41995  0.65117  Biso   1.000  He
  He128    1.0000 0.84194  0.43838  0.64057  Biso   1.000  He
  Ne128    1.0000 0.81808  0.42224  0.62272  Biso   1.000  Ne
  Ne129    1.0000 0.58608  0.57665  0.84333  Biso   1.000  Ne
  He129    1.0000 0.61054  0.57534  0.82231  Biso   1.000  He
  He130    1.0000 0.63411  0.59632  0.82900  Biso   1.000  He
  Ne130    1.0000 0.65681  0.59559  0.80465  Biso   1.000  Ne
  Ne131    1.0000 0.67079  0.32715  0.10068  Biso   1.000  Ne
  He131    1.0000 0.63826  0.32767  0.09766  Biso   1.000  He
  He132    1.0000 0.62094  0.30816  0.11896  Biso   1.000  He
  Ne132    1.0000 0.58971  0.31162  0.11154  Biso   1.000  Ne
  Ne133    1.0000 0.30431  0.14313  0.07852  Biso   1.000  Ne
  He133    1.0000 0.31892  0.17273  0.07462  Biso   1.000  He
  He134    1.0000 0.32826  0.17922  0.04191  Biso   1.000  He
  Ne134    1.0000 0.34749  0.20541  0.03938  Biso   1.000  Ne
  Ne135    1.0000 0.40706  0.33508  0.84853  Biso   1.000  Ne
  He135    1.0000 0.42852  0.35297  0.83025  Biso   1.000  He
  He136    1.0000 0.41640  0.38323  0.81780  Biso   1.000  He
  Ne136    1.0000 0.43653  0.39806  0.79797  Biso   1.000  Ne
  Ne137    1.0000 0.10678  0.91108  0.93471  Biso   1.000  Ne
  He137    1.0000 0.08980  0.90632  0.96353  Biso   1.000  He
  He138    1.0000 0.09026  0.93141  0.98535  Biso   1.000  He
  Ne138    1.0000 0.07278  0.92503  0.01094  Biso   1.000  Ne
  Ne139    1.0000 0.63237  0.05991  0.65998  Biso   1.000  Ne
  He139    1.0000 0.65307  0.07520  0.68354  Biso   1.000  He
  He140    1.0000 0.68811  0.07236  0.67816  Biso   1.000  He
  Ne140    1.0000 0.70533  0.08042  0.70574  Biso   1.000  Ne
  Ne141    1.0000 0.98543  0.06527  0.06992  Biso   1.000  Ne
  He141    1.0000 0.95571  0.05355  0.08023  Biso   1.000  He
  He142    1.0000 0.93089  0.07640  0.08139  Biso   1.000  He
  Ne142    1.0000 0.90099  0.06547  0.08840  Biso   1.000  Ne
  Ne143    1.0000 0.11283  0.93617  0.25814  Biso   1.000  Ne
  He143    1.0000 0.11143  0.93903  0.22397  Biso   1.000  He
  He144    1.0000 0.10676  0.91149  0.20602  Biso   1.000  He
  Ne144    1.0000 0.10306  0.91466  0.17476  Biso   1.000  Ne
  Ne145    1.0000 0.16354  0.43096  0.24422  Biso   1.000  Ne
  He145    1.0000 0.14979  0.43097  0.27399  Biso   1.000  He
  He146    1.0000 0.17092  0.42232  0.30138  Biso   1.000  He
  Ne146    1.0000 0.15378  0.42121  0.33282  Biso   1.000  Ne
  Ne147    1.0000 0.70857  0.42240  0.81212  Biso   1.000  Ne
  He147    1.0000 0.71118  0.39421  0.79575  Biso   1.000  He
  He148    1.0000 0.68321  0.37716  0.80153  Biso   1.000  He
  Ne148    1.0000 0.68246  0.34723  0.78759  Biso   1.000  Ne
  Ne149    1.0000 0.43728  0.85119  0.69476  Biso   1.000  Ne
  He149    1.0000 0.43155  0.82390  0.67635  Biso   1.000  He
  He150    1.0000 0.43760  0.82749  0.64327  Biso   1.000  He
  Ne150    1.0000 0.42485  0.80441  0.62352  Biso   1.000  Ne
  Ne151    1.0000 0.69239  0.08241  0.58658  Biso   1.000  Ne
  He151    1.0000 0.67678  0.11077  0.60010  Biso   1.000  He
  He152    1.0000 0.68117  0.13760  0.58268  Biso   1.000  He
  Ne152    1.0000 0.67097  0.16623  0.59810  Biso   1.000  Ne
  Ne153    1.0000 0.48007  0.68394  0.72310  Biso   1.000  Ne
  He153    1.0000 0.45173  0.69591  0.71046  Biso   1.000  He
  He154    1.0000 0.45423  0.72611  0.69714  Biso   1.000  He
  Ne154    1.0000 0.42462  0.73427  0.68241  Biso   1.000  Ne
  Ne155    1.0000 0.21405  0.17040  0.95154  Biso   1.000  Ne
  He155    1.0000 0.20302  0.14511  0.93023  Biso   1.000  He
  He156    1.0000 0.19576  0.11621  0.94564  Biso   1.000  He
  Ne156    1.0000 0.18031  0.09272  0.92389  Biso   1.000  Ne
  Ne157    1.0000 0.12049  0.86199  0.79304  Biso   1.000  Ne
  He157    1.0000 0.12620  0.87318  0.82245  Biso   1.000  He
  He158    1.0000 0.12676  0.90517  0.82745  Biso   1.000  He
  Ne158    1.0000 0.12811  0.91550  0.85563  Biso   1.000  Ne
  Ne159    1.0000 0.16262  0.31913  0.38580  Biso   1.000  Ne
  He159    1.0000 0.13795  0.30223  0.40015  Biso   1.000  He
  He160    1.0000 0.14746  0.28685  0.42507  Biso   1.000  He
  Ne160    1.0000 0.15318  0.25428  0.41723  Biso   1.000  Ne
  Ne161    1.0000 0.11327  0.54043  0.61115  Biso   1.000  Ne
  He161    1.0000 0.11699  0.56990  0.60046  Biso   1.000  He
  He162    1.0000 0.08851  0.58428  0.58908  Biso   1.000  He
  Ne162    1.0000 0.09355  0.61646  0.58197  Biso   1.000  Ne
  Ne163    1.0000 0.60166  0.15018  0.67271  Biso   1.000  Ne
  He163    1.0000 0.58805  0.13861  0.64422  Biso   1.000  He
  He164    1.0000 0.59638  0.15206  0.61694  Biso   1.000  He
  Ne164    1.0000 0.58229  0.13861  0.59085  Biso   1.000  Ne
  Ne165    1.0000 0.79597  0.59418  0.41619  Biso   1.000  Ne
  He165    1.0000 0.77156  0.58946  0.39266  Biso   1.000  He
  He166    1.0000 0.77410  0.55825  0.38124  Biso   1.000  He
  Ne166    1.0000 0.75668  0.55152  0.35252  Biso   1.000  Ne
  Ne167    1.0000 0.12172  0.18452  0.94012  Biso   1.000  Ne
  He167    1.0000 0.09822  0.16076  0.94122  Biso   1.000  He
  He168    1.0000 0.10997  0.12949  0.94444  Biso   1.000  He
  Ne168    1.0000 0.08461  0.10712  0.94385  Biso   1.000  Ne
  Ne169    1.0000 0.21603  0.57269  0.71104  Biso   1.000  Ne
  He169    1.0000 0.18870  0.56524  0.69329  Biso   1.000  He
  He170    1.0000 0.16013  0.56311  0.71058  Biso   1.000  He
  Ne170    1.0000 0.13211  0.55849  0.69121  Biso   1.000  Ne
  Ne171    1.0000 0.36053  0.92906  0.41279  Biso   1.000  Ne
  He171    1.0000 0.32924  0.93741  0.40832  Biso   1.000  He
  He172    1.0000 0.31227  0.92993  0.43655  Biso   1.000  He
  Ne172    1.0000 0.28058  0.93610  0.43490  Biso   1.000  Ne
  Ne173    1.0000 0.44250  0.13509  0.41984  Biso   1.000  Ne
  He173    1.0000 0.44730  0.15847  0.39612  Biso   1.000  He
  He174    1.0000 0.43884  0.19051  0.40602  Biso   1.000  He
  Ne174    1.0000 0.44555  0.21130  0.38175  Biso   1.000  Ne
  Ne175    1.0000 0.40061  0.89708  0.58176  Biso   1.000  Ne
  He175    1.0000 0.42037  0.92430  0.58377  Biso   1.000  He
  He176    1.0000 0.44625  0.92516  0.55995  Biso   1.000  He
  Ne176    1.0000 0.46004  0.95466  0.55822  Biso   1.000  Ne
  Ne177    1.0000 0.99432  0.59081  0.56993  Biso   1.000  Ne
  He177    1.0000 0.97397  0.59284  0.59536  Biso   1.000  He
  He178    1.0000 0.96511  0.56427  0.60863  Biso   1.000  He
  Ne178    1.0000 0.94829  0.57210  0.63598  Biso   1.000  Ne
  Ne179    1.0000 0.87929  0.89859  0.80757  Biso   1.000  Ne
  He179    1.0000 0.90158  0.90241  0.83301  Biso   1.000  He
  He180    1.0000 0.93367  0.90789  0.82484  Biso   1.000  He
  Ne180    1.0000 0.95519  0.91432  0.84987  Biso   1.000  Ne
  Ne181    1.0000 0.79905  0.72612  0.79328  Biso   1.000  Ne
  He181    1.0000 0.82912  0.73235  0.78278  Biso   1.000  He
  He182    1.0000 0.83287  0.75938  0.76569  Biso   1.000  He
  Ne182    1.0000 0.86150  0.75807  0.75023  Biso   1.000  Ne
  Ne183    1.0000 0.97138  0.38098  0.90082  Biso   1.000  Ne
  He183    1.0000 0.98781  0.37691  0.87330  Biso   1.000  He
  He184    1.0000 0.97367  0.39470  0.84746  Biso   1.000  He
  Ne184    1.0000 0.98694  0.39400  0.81942  Biso   1.000  Ne
  Ne185    1.0000 0.22555  0.59233  0.45132  Biso   1.000  Ne
  He185    1.0000 0.21677  0.59763  0.41966  Biso   1.000  He
  He186    1.0000 0.23755  0.58667  0.39760  Biso   1.000  He
  Ne186    1.0000 0.23145  0.59373  0.36725  Biso   1.000  Ne
  Ne187    1.0000 0.59231  0.87179  0.73333  Biso   1.000  Ne
  He187    1.0000 0.60198  0.87197  0.70032  Biso   1.000  He
  He188    1.0000 0.59849  0.89997  0.68651  Biso   1.000  He
  Ne188    1.0000 0.60409  0.90075  0.65129  Biso   1.000  Ne
  Ne189    1.0000 0.68272  0.27686  0.64840  Biso   1.000  Ne
  He189    1.0000 0.70942  0.26495  0.65973  Biso   1.000  He
  He190    1.0000 0.70436  0.23357  0.66129  Biso   1.000  He
  Ne190    1.0000 0.72830  0.21662  0.67561  Biso   1.000  Ne
  Ne191    1.0000 0.38603  0.19990  0.58127  Biso   1.000  Ne
  He191    1.0000 0.35503  0.20242  0.59371  Biso   1.000  He
  He192    1.0000 0.34762  0.20747  0.62703  Biso   1.000  He
  Ne192    1.0000 0.31459  0.20547  0.63104  Biso   1.000  Ne
  Ne193    1.0000 0.43376  0.90615  0.45780  Biso   1.000  Ne
  He193    1.0000 0.44783  0.93265  0.47463  Biso   1.000  He
  He194    1.0000 0.45244  0.95780  0.45315  Biso   1.000  He
  Ne194    1.0000 0.47456  0.98197  0.46223  Biso   1.000  Ne
  Ne195    1.0000 0.93234  0.06093  0.90576  Biso   1.000  Ne
  He195    1.0000 0.93857  0.07376  0.93923  Biso   1.000  He
  He196    1.0000 0.96903  0.07410  0.94847  Biso   1.000  He
  Ne196    1.0000 0.97399  0.07875  0.98228  Biso   1.000  Ne
  Ne197    1.0000 0.96860  0.76476  0.35976  Biso   1.000  Ne
  He197    1.0000 0.94822  0.76113  0.38651  Biso   1.000  He
  He198    1.0000 0.95213  0.73140  0.39990  Biso   1.000  He
  Ne198    1.0000 0.93047  0.72626  0.42217  Biso   1.000  Ne
  Ne199    1.0000 0.42913  0.12967  0.60492  Biso   1.000  Ne
  He199    1.0000 0.44039  0.09927  0.61837  Biso   1.000  He
  He200    1.0000 0.43275  0.07259  0.60167  Biso   1.000  He
  Ne200    1.0000 0.44240  0.04676  0.61827  Biso   1.000  Ne
  Ne201    1.0000 0.93051  0.14836  0.71894  Biso   1.000  Ne
  He201    1.0000 0.93081  0.17106  0.74294  Biso   1.000  He
  He202    1.0000 0.93071  0.20184  0.73291  Biso   1.000  He
  Ne202    1.0000 0.93688  0.22371  0.75613  Biso   1.000  Ne
  Ne203    1.0000 0.38415  0.69361  0.10153  Biso   1.000  Ne
  He203    1.0000 0.40830  0.68412  0.12268  Biso   1.000  He
  He204    1.0000 0.41160  0.65161  0.12531  Biso   1.000  He
  Ne204    1.0000 0.43673  0.64646  0.14340  Biso   1.000  Ne
  Ne205    1.0000 0.35895  0.41800  0.92615  Biso   1.000  Ne
  He205    1.0000 0.38781  0.40679  0.92429  Biso   1.000  He
  He206    1.0000 0.39623  0.38466  0.94594  Biso   1.000  He
  Ne206    1.0000 0.42846  0.37396  0.94078  Biso   1.000  Ne
  Ne207    1.0000 0.38767  0.33994  0.10695  Biso   1.000  Ne
  He207    1.0000 0.41790  0.35154  0.10795  Biso   1.000  He
  He208    1.0000 0.42218  0.38436  0.11442  Biso   1.000  He
  Ne208    1.0000 0.45554  0.38807  0.11259  Biso   1.000  Ne
  Ne209    1.0000 0.58444  0.90392  0.33467  Biso   1.000  Ne
  He209    1.0000 0.61567  0.91120  0.34068  Biso   1.000  He
  He210    1.0000 0.63473  0.91163  0.31358  Biso   1.000  He
  Ne210    1.0000 0.66897  0.91099  0.31735  Biso   1.000  Ne
  Ne211    1.0000 0.93087  0.52581  0.54486  Biso   1.000  Ne
  He211    1.0000 0.93450  0.50944  0.51455  Biso   1.000  He
  He212    1.0000 0.94194  0.52956  0.48887  Biso   1.000  He
  Ne212    1.0000 0.94584  0.51350  0.45761  Biso   1.000  Ne
  Ne213    1.0000 0.56512  0.53927  0.30886  Biso   1.000  Ne
  He213    1.0000 0.58178  0.56527  0.29631  Biso   1.000  He
  He214    1.0000 0.61442  0.56222  0.29374  Biso   1.000  He
  Ne214    1.0000 0.62994  0.59097  0.28604  Biso   1.000  Ne
  Ne215    1.0000 0.95330  0.99904  0.30257  Biso   1.000  Ne
  He215    1.0000 0.94713  0.03166  0.30297  Biso   1.000  He
  He216    1.0000 0.97144  0.04972  0.31065  Biso   1.000  He
  Ne216    1.0000 0.96453  0.07988  0.31655  Biso   1.000  Ne
  Ne217    1.0000 0.15588  0.33445  0.70046  Biso   1.000  Ne
  He217    1.0000 0.15704  0.36279  0.71720  Biso   1.000  He
  He218    1.0000 0.18017  0.36591  0.74262  Biso   1.000  He
  Ne218    1.0000 0.17871  0.39699  0.75616  Biso   1.000  Ne
  Ne219    1.0000 0.89647  0.16392  0.81857  Biso   1.000  Ne
  He219    1.0000 0.90870  0.13413  0.80907  Biso   1.000  He
  He220    1.0000 0.92389  0.11942  0.83373  Biso   1.000  He
  Ne220    1.0000 0.94080  0.09294  0.82031  Biso   1.000  Ne
  Ne221    1.0000 0.93825  0.93660  0.02796  Biso   1.000  Ne
  He221    1.0000 0.94720  0.94065  0.99742  Biso   1.000  He
  He222    1.0000 0.93946  0.97052  0.98704  Biso   1.000  He
  Ne222    1.0000 0.94864  0.97455  0.95859  Biso   1.000  Ne
  Ne223    1.0000 0.70588  0.90589  0.61088  Biso   1.000  Ne
  He223    1.0000 0.68105  0.88672  0.62113  Biso   1.000  He
  He224    1.0000 0.67673  0.86028  0.60368  Biso   1.000  He
  Ne224    1.0000 0.65720  0.83866  0.61994  Biso   1.000  Ne
  Ne225    1.0000 0.57941  0.59565  0.06055  Biso   1.000  Ne
  He225    1.0000 0.59254  0.58704  0.08900  Biso   1.000  He
  He226    1.0000 0.59227  0.55149  0.09269  Biso   1.000  He
  Ne226    1.0000 0.57041  0.53952  0.11299  Biso   1.000  Ne
  Ne227    1.0000 0.34173  0.66446  0.57648  Biso   1.000  Ne
  He227    1.0000 0.34325  0.64051  0.55281  Biso   1.000  He
  He228    1.0000 0.33395  0.65143  0.52065  Biso   1.000  He
  Ne228    1.0000 0.32280  0.62760  0.49761  Biso   1.000  Ne
  Ne229    1.0000 0.52394  0.49990  0.94220  Biso   1.000  Ne
  He229    1.0000 0.49056  0.49608  0.94753  Biso   1.000  He
  He230    1.0000 0.48178  0.51286  0.97526  Biso   1.000  He
  Ne230    1.0000 0.45147  0.50730  0.98595  Biso   1.000  Ne
  Ne231    1.0000 0.49284  0.52115  0.05627  Biso   1.000  Ne
  He231    1.0000 0.47078  0.53326  0.07997  Biso   1.000  He
  He232    1.0000 0.44485  0.55056  0.06648  Biso   1.000  He
  Ne232    1.0000 0.42388  0.56316  0.08891  Biso   1.000  Ne
  Ne233    1.0000 0.83321  0.89158  0.15807  Biso   1.000  Ne
  He233    1.0000 0.80618  0.90961  0.15230  Biso   1.000  He
  He234    1.0000 0.78209  0.89088  0.13877  Biso   1.000  He
  Ne234    1.0000 0.75389  0.90488  0.13039  Biso   1.000  Ne
  Ne235    1.0000 0.69001  0.39514  0.92386  Biso   1.000  Ne
  He235    1.0000 0.67309  0.41575  0.90128  Biso   1.000  He
  He236    1.0000 0.65329  0.40053  0.87594  Biso   1.000  He
  Ne236    1.0000 0.63497  0.42184  0.85822  Biso   1.000  Ne
  Ne237    1.0000 0.73040  0.55418  0.10276  Biso   1.000  Ne
  He237    1.0000 0.71499  0.58235  0.11725  Biso   1.000  He
  He238    1.0000 0.70349  0.57242  0.14697  Biso   1.000  He
  Ne238    1.0000 0.68692  0.59467  0.16238  Biso   1.000  Ne
  Ne239    1.0000 0.94784  0.42644  0.17575  Biso   1.000  Ne
  He239    1.0000 0.95531  0.39604  0.17953  Biso   1.000  He
  He240    1.0000 0.98444  0.39195  0.19572  Biso   1.000  He
  Ne240    1.0000 0.98922  0.36284  0.21347  Biso   1.000  Ne
  Ne241    1.0000 0.10054  0.31834  0.61281  Biso   1.000  Ne
  He241    1.0000 0.13199  0.31608  0.60291  Biso   1.000  He
  He242    1.0000 0.15225  0.33663  0.61413  Biso   1.000  He
  Ne242    1.0000 0.17803  0.33674  0.59690  Biso   1.000  Ne
  Ne243    1.0000 0.58093  0.63397  0.94027  Biso   1.000  Ne
  He243    1.0000 0.59481  0.65504  0.91957  Biso   1.000  He
  He244    1.0000 0.62374  0.66609  0.93277  Biso   1.000  He
  Ne244    1.0000 0.64170  0.68027  0.90931  Biso   1.000  Ne
  Ne245    1.0000 0.10407  0.07193  0.82727  Biso   1.000  Ne
  He245    1.0000 0.13615  0.07848  0.83670  Biso   1.000  He
  He246    1.0000 0.15030  0.10705  0.82450  Biso   1.000  He
  Ne246    1.0000 0.18147  0.10880  0.83405  Biso   1.000  Ne
  Ne247    1.0000 0.27293  0.05128  0.60714  Biso   1.000  Ne
  He247    1.0000 0.29343  0.05338  0.63669  Biso   1.000  He
  He248    1.0000 0.32517  0.05826  0.62590  Biso   1.000  He
  Ne248    1.0000 0.34711  0.06088  0.65255  Biso   1.000  Ne
  Ne249    1.0000 0.92546  0.23295  0.13169  Biso   1.000  Ne
  He249    1.0000 0.91992  0.20110  0.14082  Biso   1.000  He
  He250    1.0000 0.89546  0.18561  0.12290  Biso   1.000  He
  Ne250    1.0000 0.90172  0.16759  0.09641  Biso   1.000  Ne
  Ne251    1.0000 0.94741  0.41839  0.49068  Biso   1.000  Ne
  He251    1.0000 0.97702  0.41946  0.47858  Biso   1.000  He
  He252    1.0000 0.99869  0.40834  0.49826  Biso   1.000  He
  Ne252    1.0000 0.02863  0.41916  0.48941  Biso   1.000  Ne
  Ne253    1.0000 0.42410  0.63929  0.85383  Biso   1.000  Ne
  He253    1.0000 0.41264  0.61429  0.83873  Biso   1.000  He
  He254    1.0000 0.43081  0.58803  0.83880  Biso   1.000  He
  Ne254    1.0000 0.41862  0.56163  0.81975  Biso   1.000  Ne
  Ne255    1.0000 0.61426  0.95072  0.57615  Biso   1.000  Ne
  He255    1.0000 0.58437  0.94713  0.56773  Biso   1.000  He
  He256    1.0000 0.57925  0.91703  0.55864  Biso   1.000  He
  Ne256    1.0000 0.54709  0.90902  0.54972  Biso   1.000  Ne
  Ne257    1.0000 0.56546  0.27277  0.93324  Biso   1.000  Ne
  He257    1.0000 0.58927  0.29816  0.93838  Biso   1.000  He
  He258    1.0000 0.58725  0.32057  0.91332  Biso   1.000  He
  Ne258    1.0000 0.60430  0.34796  0.91958  Biso   1.000  Ne
  Ne259    1.0000 0.23610  0.09274  0.12393  Biso   1.000  Ne
  He259    1.0000 0.25357  0.07857  0.09813  Biso   1.000  He
  He260    1.0000 0.28522  0.07014  0.10698  Biso   1.000  He
  Ne260    1.0000 0.30345  0.05801  0.08112  Biso   1.000  Ne
