data_image0
_cell_length_a       46.6149
_cell_length_b       46.6438
_cell_length_c       46.5236
_cell_angle_alpha    90
_cell_angle_beta     90
_cell_angle_gamma    90

_symmetry_space_group_name_H-M    "P 1"
_symmetry_int_tables_number       1

loop_
  _symmetry_equiv_pos_as_xyz
  'x, y, z'

loop_
  _atom_site_label
  _atom_site_occupancy
  _atom_site_fract_x
  _atom_site_fract_y
  _atom_site_fract_z
  _atom_site_thermal_displace_type
  _atom_site_B_iso_or_equiv
  _atom_site_type_symbol
  Ne1      1.0000 0.71660  0.14921  0.39813  Biso   1.000  Ne
  He1      1.0000 0.72964  0.12190  0.40489  Biso   1.000  He
  He2      1.0000 0.70765  0.09907  0.41622  Biso   1.000  He
  Ne2      1.0000 0.71969  0.06877  0.41775  Biso   1.000  Ne
  Ne3      1.0000 0.93330  0.10258  0.12915  Biso   1.000  Ne
  He3      1.0000 0.90881  0.08187  0.13630  Biso   1.000  He
  He4      1.0000 0.87854  0.09490  0.12454  Biso   1.000  He
  Ne4      1.0000 0.85326  0.07476  0.12503  Biso   1.000  Ne
  Ne5      1.0000 0.12356  0.10773  0.76917  Biso   1.000  Ne
  He5      1.0000 0.11650  0.10746  0.80102  Biso   1.000  He
  He6      1.0000 0.11829  0.07736  0.81693  Biso   1.000  He
  Ne6      1.0000 0.11493  0.08166  0.84880  Biso   1.000  Ne
  Ne7      1.0000 0.66139  0.21287  0.56999  Biso   1.000  Ne
  He7      1.0000 0.64341  0.18529  0.56952  Biso   1.000  He
  He8      1.0000 0.61684  0.18839  0.58817  Biso   1.000  He
  Ne8      1.0000 0.59842  0.16103  0.59301  Biso   1.000  Ne
  Ne9      1.0000 0.18235  0.67282  0.38520  Biso   1.000  Ne
  He9      1.0000 0.15191  0.65975  0.39498  Biso   1.000  He
  He10     1.0000 0.12829  0.68320  0.40599  Biso   1.000  He
  Ne10     1.0000 0.09957  0.67193  0.41872  Biso   1.000  Ne
  Ne11     1.0000 0.92239  0.23718  0.37037  Biso   1.000  Ne
  He11     1.0000 0.94789  0.23457  0.39035  Biso   1.000  He
  He12     1.0000 0.93829  0.23675  0.42177  Biso   1.000  He
  Ne12     1.0000 0.95869  0.22937  0.44742  Biso   1.000  Ne
  Ne13     1.0000 0.97352  0.92787  0.07333  Biso   1.000  Ne
  He13     1.0000 0.96985  0.95172  0.04915  Biso   1.000  He
  He14     1.0000 0.96294  0.93695  0.01707  Biso   1.000  He
  Ne14     1.0000 0.96301  0.95873  0.99252  Biso   1.000  Ne
  Ne15     1.0000 0.28322  0.08426  0.60225  Biso   1.000  Ne
  He15     1.0000 0.31544  0.08870  0.60985  Biso   1.000  He
  He16     1.0000 0.33320  0.06076  0.61182  Biso   1.000  He
  Ne16     1.0000 0.36665  0.06444  0.61691  Biso   1.000  Ne
  Ne17     1.0000 0.10904  0.41371  0.34283  Biso   1.000  Ne
  He17     1.0000 0.12065  0.38948  0.32426  Biso   1.000  He
  He18     1.0000 0.09676  0.36910  0.32086  Biso   1.000  He
  Ne18     1.0000 0.09718  0.34475  0.29535  Biso   1.000  Ne
  Ne19     1.0000 0.34097  0.26095  0.64145  Biso   1.000  Ne
  He19     1.0000 0.32744  0.23722  0.62196  Biso   1.000  He
  He20     1.0000 0.31717  0.20948  0.63631  Biso   1.000  He
  Ne20     1.0000 0.29854  0.18833  0.61593  Biso   1.000  Ne
  Ne21     1.0000 0.02472  0.48758  0.40788  Biso   1.000  Ne
  He21     1.0000 0.04914  0.49603  0.43128  Biso   1.000  He
  He22     1.0000 0.07595  0.50924  0.41919  Biso   1.000  He
  Ne22     1.0000 0.09861  0.52208  0.44220  Biso   1.000  Ne
  Ne23     1.0000 0.93596  0.72963  0.25057  Biso   1.000  Ne
  He23     1.0000 0.94135  0.76146  0.24360  Biso   1.000  He
  He24     1.0000 0.97329  0.77450  0.24896  Biso   1.000  He
  Ne24     1.0000 0.97903  0.80526  0.24169  Biso   1.000  Ne
  Ne25     1.0000 0.47876  0.42180  0.08971  Biso   1.000  Ne
  He25     1.0000 0.44837  0.41549  0.08477  Biso   1.000  He
  He26     1.0000 0.43463  0.42468  0.05824  Biso   1.000  He
  Ne26     1.0000 0.40318  0.41244  0.05671  Biso   1.000  Ne
  Ne27     1.0000 0.59698  0.75956  0.33794  Biso   1.000  Ne
  He27     1.0000 0.59241  0.73583  0.31566  Biso   1.000  He
  He28     1.0000 0.62021  0.73436  0.29855  Biso   1.000  He
  Ne28     1.0000 0.62031  0.71576  0.27474  Biso   1.000  Ne
  Ne29     1.0000 0.33068  0.88593  0.65122  Biso   1.000  Ne
  He29     1.0000 0.33376  0.87119  0.62284  Biso   1.000  He
  He30     1.0000 0.33844  0.89366  0.59731  Biso   1.000  He
  Ne30     1.0000 0.36988  0.90166  0.59185  Biso   1.000  Ne
  Ne31     1.0000 0.94436  0.07234  0.05335  Biso   1.000  Ne
  He31     1.0000 0.96431  0.04958  0.06241  Biso   1.000  He
  He32     1.0000 0.99542  0.05478  0.05160  Biso   1.000  He
  Ne32     1.0000 0.01714  0.03021  0.05534  Biso   1.000  Ne
  Ne33     1.0000 0.94124  0.82702  0.84390  Biso   1.000  Ne
  He33     1.0000 0.94224  0.83088  0.87813  Biso   1.000  He
  He34     1.0000 0.94603  0.80335  0.89284  Biso   1.000  He
  Ne34     1.0000 0.94240  0.80418  0.92458  Biso   1.000  Ne
  Ne35     1.0000 0.09825  0.89060  0.11092  Biso   1.000  Ne
  He35     1.0000 0.09476  0.85859  0.09946  Biso   1.000  He
  He36     1.0000 0.09860  0.85255  0.06842  Biso   1.000  He
  Ne36     1.0000 0.10394  0.81949  0.06296  Biso   1.000  Ne
  Ne37     1.0000 0.59755  0.24033  0.32798  Biso   1.000  Ne
  He37     1.0000 0.60373  0.25743  0.29933  Biso   1.000  He
  He38     1.0000 0.62247  0.24203  0.27644  Biso   1.000  He
  Ne38     1.0000 0.63012  0.25828  0.25065  Biso   1.000  Ne
  Ne39     1.0000 0.57535  0.60416  0.71530  Biso   1.000  Ne
  He39     1.0000 0.55090  0.58798  0.69794  Biso   1.000  He
  He40     1.0000 0.52072  0.60604  0.69459  Biso   1.000  He
  Ne40     1.0000 0.49987  0.59147  0.67275  Biso   1.000  Ne
  Ne41     1.0000 0.54465  0.50624  0.07312  Biso   1.000  Ne
  He41     1.0000 0.56937  0.52804  0.05939  Biso   1.000  He
  He42     1.0000 0.57265  0.52501  0.02680  Biso   1.000  He
  Ne42     1.0000 0.59581  0.54440  0.01288  Biso   1.000  Ne
  Ne43     1.0000 0.41435  0.74201  0.10949  Biso   1.000  Ne
  He43     1.0000 0.42445  0.71275  0.10791  Biso   1.000  He
  He44     1.0000 0.41009  0.69713  0.08151  Biso   1.000  He
  Ne44     1.0000 0.41895  0.66349  0.07984  Biso   1.000  Ne
  Ne45     1.0000 0.87904  0.08815  0.26277  Biso   1.000  Ne
  He45     1.0000 0.90956  0.07445  0.26111  Biso   1.000  He
  He46     1.0000 0.91702  0.05020  0.28233  Biso   1.000  He
  Ne46     1.0000 0.94437  0.03516  0.27437  Biso   1.000  Ne
  Ne47     1.0000 0.77421  0.67551  0.40974  Biso   1.000  Ne
  He47     1.0000 0.79687  0.65242  0.40103  Biso   1.000  He
  He48     1.0000 0.82626  0.66559  0.39301  Biso   1.000  He
  Ne48     1.0000 0.84896  0.64197  0.38378  Biso   1.000  Ne
  Ne49     1.0000 0.44260  0.09875  0.33335  Biso   1.000  Ne
  He49     1.0000 0.42915  0.11129  0.36011  Biso   1.000  He
  He50     1.0000 0.43281  0.09670  0.39020  Biso   1.000  He
  Ne50     1.0000 0.43391  0.12124  0.41125  Biso   1.000  Ne
  Ne51     1.0000 0.85988  0.19943  0.55083  Biso   1.000  Ne
  He51     1.0000 0.83745  0.20974  0.57285  Biso   1.000  He
  He52     1.0000 0.85307  0.22695  0.59725  Biso   1.000  He
  Ne52     1.0000 0.83183  0.23367  0.62287  Biso   1.000  Ne
  Ne53     1.0000 0.59110  0.67498  0.07460  Biso   1.000  Ne
  He53     1.0000 0.59449  0.64470  0.08963  Biso   1.000  He
  He54     1.0000 0.59182  0.64577  0.12410  Biso   1.000  He
  Ne54     1.0000 0.59854  0.61899  0.14276  Biso   1.000  Ne
  Ne55     1.0000 0.62068  0.33438  0.78518  Biso   1.000  Ne
  He55     1.0000 0.62520  0.32292  0.81359  Biso   1.000  He
  He56     1.0000 0.61994  0.34378  0.83874  Biso   1.000  He
  Ne56     1.0000 0.63222  0.33131  0.86571  Biso   1.000  Ne
  Ne57     1.0000 0.32676  0.39324  0.07395  Biso   1.000  Ne
  He57     1.0000 0.33251  0.38052  0.10419  Biso   1.000  He
  He58     1.0000 0.31849  0.34816  0.10564  Biso   1.000  He
  Ne58     1.0000 0.32616  0.33752  0.13619  Biso   1.000  Ne
  Ne59     1.0000 0.44556  0.67756  0.72677  Biso   1.000  Ne
  He59     1.0000 0.46257  0.70684  0.72031  Biso   1.000  He
  He60     1.0000 0.47664  0.70197  0.69140  Biso   1.000  He
  Ne60     1.0000 0.48797  0.72738  0.67578  Biso   1.000  Ne
  Ne61     1.0000 0.61839  0.66975  0.82844  Biso   1.000  Ne
  He61     1.0000 0.61500  0.63655  0.83783  Biso   1.000  He
  He62     1.0000 0.61283  0.61733  0.81052  Biso   1.000  He
  Ne62     1.0000 0.61540  0.58400  0.81719  Biso   1.000  Ne
  Ne63     1.0000 0.94785  0.52716  0.53795  Biso   1.000  Ne
  He63     1.0000 0.94770  0.53892  0.50458  Biso   1.000  He
  He64     1.0000 0.96452  0.51948  0.48030  Biso   1.000  He
  Ne64     1.0000 0.95775  0.52674  0.44796  Biso   1.000  Ne
  Ne65     1.0000 0.20384  0.09678  0.27473  Biso   1.000  Ne
  He65     1.0000 0.19680  0.06645  0.26408  Biso   1.000  He
  He66     1.0000 0.18650  0.04353  0.28702  Biso   1.000  He
  Ne66     1.0000 0.17839  0.01409  0.27263  Biso   1.000  Ne
  Ne67     1.0000 0.66084  0.05858  0.57818  Biso   1.000  Ne
  He67     1.0000 0.65988  0.07866  0.60410  Biso   1.000  He
  He68     1.0000 0.68973  0.08501  0.61868  Biso   1.000  He
  Ne68     1.0000 0.70495  0.11542  0.61226  Biso   1.000  Ne
  Ne69     1.0000 0.35335  0.07653  0.40616  Biso   1.000  Ne
  He69     1.0000 0.33375  0.09413  0.38545  Biso   1.000  He
  He70     1.0000 0.34352  0.09361  0.35533  Biso   1.000  He
  Ne70     1.0000 0.32564  0.07746  0.32930  Biso   1.000  Ne
  Ne71     1.0000 0.91763  0.89146  0.91933  Biso   1.000  Ne
  He71     1.0000 0.88744  0.89130  0.90025  Biso   1.000  He
  He72     1.0000 0.86756  0.86690  0.91399  Biso   1.000  He
  Ne72     1.0000 0.83490  0.86437  0.90368  Biso   1.000  Ne
  Ne73     1.0000 0.86033  0.56292  0.33093  Biso   1.000  Ne
  He73     1.0000 0.88723  0.55157  0.34415  Biso   1.000  He
  He74     1.0000 0.91365  0.56427  0.32710  Biso   1.000  He
  Ne74     1.0000 0.94436  0.55481  0.33929  Biso   1.000  Ne
  Ne75     1.0000 0.27360  0.24141  0.35916  Biso   1.000  Ne
  He75     1.0000 0.28235  0.21838  0.38384  Biso   1.000  He
  He76     1.0000 0.29363  0.19160  0.37229  Biso   1.000  He
  Ne76     1.0000 0.29668  0.16553  0.39395  Biso   1.000  Ne
  Ne77     1.0000 0.70607  0.77037  0.86709  Biso   1.000  Ne
  He77     1.0000 0.73736  0.76312  0.87142  Biso   1.000  He
  He78     1.0000 0.75666  0.78361  0.89448  Biso   1.000  He
  Ne78     1.0000 0.78731  0.77605  0.89566  Biso   1.000  Ne
  Ne79     1.0000 0.60944  0.41511  0.17611  Biso   1.000  Ne
  He79     1.0000 0.64016  0.40736  0.18356  Biso   1.000  He
  He80     1.0000 0.65711  0.38743  0.16119  Biso   1.000  He
  Ne80     1.0000 0.68932  0.38308  0.17044  Biso   1.000  Ne
  Ne81     1.0000 0.67058  0.81482  0.17916  Biso   1.000  Ne
  He81     1.0000 0.67711  0.84488  0.19286  Biso   1.000  He
  He82     1.0000 0.70100  0.84337  0.21710  Biso   1.000  He
  Ne82     1.0000 0.70904  0.87158  0.23208  Biso   1.000  Ne
  Ne83     1.0000 0.87019  0.40099  0.36762  Biso   1.000  Ne
  He83     1.0000 0.83869  0.39492  0.37214  Biso   1.000  He
  He84     1.0000 0.83268  0.37182  0.39567  Biso   1.000  He
  Ne84     1.0000 0.80028  0.36757  0.40038  Biso   1.000  Ne
  Ne85     1.0000 0.83240  0.28707  0.25064  Biso   1.000  Ne
  He85     1.0000 0.80961  0.30857  0.25906  Biso   1.000  He
  He86     1.0000 0.82500  0.33504  0.27395  Biso   1.000  He
  Ne86     1.0000 0.80391  0.35767  0.28729  Biso   1.000  Ne
  Ne87     1.0000 0.36983  0.28672  0.06788  Biso   1.000  Ne
  He87     1.0000 0.39028  0.31476  0.07172  Biso   1.000  He
  He88     1.0000 0.42675  0.31156  0.07350  Biso   1.000  He
  Ne88     1.0000 0.44454  0.34136  0.06994  Biso   1.000  Ne
  Ne89     1.0000 0.14191  0.17593  0.48632  Biso   1.000  Ne
  He89     1.0000 0.13433  0.14673  0.49187  Biso   1.000  He
  He90     1.0000 0.16151  0.13167  0.50802  Biso   1.000  He
  Ne90     1.0000 0.15680  0.09988  0.51509  Biso   1.000  Ne
  Ne91     1.0000 0.38240  0.19417  0.39293  Biso   1.000  Ne
  He91     1.0000 0.41004  0.21322  0.39708  Biso   1.000  He
  He92     1.0000 0.43724  0.20511  0.38209  Biso   1.000  He
  Ne92     1.0000 0.46407  0.22189  0.38554  Biso   1.000  Ne
  Ne93     1.0000 0.93812  0.30218  0.71895  Biso   1.000  Ne
  He93     1.0000 0.92767  0.31527  0.69166  Biso   1.000  He
  He94     1.0000 0.89501  0.32064  0.69174  Biso   1.000  He
  Ne94     1.0000 0.88296  0.33667  0.66571  Biso   1.000  Ne
  Ne95     1.0000 0.80893  0.88170  0.25946  Biso   1.000  Ne
  He95     1.0000 0.79556  0.88674  0.23199  Biso   1.000  He
  He96     1.0000 0.81751  0.89082  0.20895  Biso   1.000  He
  Ne96     1.0000 0.80383  0.89083  0.17834  Biso   1.000  Ne
  Ne97     1.0000 0.92000  0.31443  0.31561  Biso   1.000  Ne
  He97     1.0000 0.90990  0.33830  0.29330  Biso   1.000  He
  He98     1.0000 0.89597  0.36612  0.30312  Biso   1.000  He
  Ne98     1.0000 0.89552  0.38787  0.27887  Biso   1.000  Ne
  Ne99     1.0000 0.83754  0.57942  0.66397  Biso   1.000  Ne
  He99     1.0000 0.82579  0.59808  0.68943  Biso   1.000  He
  He100    1.0000 0.81463  0.62645  0.68100  Biso   1.000  He
  Ne100    1.0000 0.80899  0.64797  0.70322  Biso   1.000  Ne
  Ne101    1.0000 0.63274  0.71653  0.92360  Biso   1.000  Ne
  He101    1.0000 0.66252  0.70835  0.91008  Biso   1.000  He
  He102    1.0000 0.67396  0.68032  0.91848  Biso   1.000  He
  Ne102    1.0000 0.70266  0.67365  0.90526  Biso   1.000  Ne
  Ne103    1.0000 0.66924  0.71991  0.07437  Biso   1.000  Ne
  He103    1.0000 0.70113  0.71211  0.06850  Biso   1.000  He
  He104    1.0000 0.72095  0.73321  0.08862  Biso   1.000  He
  Ne104    1.0000 0.75281  0.72885  0.08670  Biso   1.000  Ne
  Ne105    1.0000 0.77140  0.17539  0.34714  Biso   1.000  Ne
  He105    1.0000 0.80163  0.18990  0.34786  Biso   1.000  He
  He106    1.0000 0.79870  0.22359  0.35795  Biso   1.000  He
  Ne106    1.0000 0.82907  0.23975  0.36068  Biso   1.000  Ne
  Ne107    1.0000 0.77175  0.86776  0.40408  Biso   1.000  Ne
  He107    1.0000 0.74468  0.87204  0.38559  Biso   1.000  He
  He108    1.0000 0.73404  0.90118  0.38007  Biso   1.000  He
  Ne108    1.0000 0.70682  0.90297  0.36084  Biso   1.000  Ne
  Ne109    1.0000 0.10703  0.74774  0.14555  Biso   1.000  Ne
  He109    1.0000 0.11050  0.77755  0.15703  Biso   1.000  He
  He110    1.0000 0.14130  0.79021  0.15467  Biso   1.000  He
  Ne110    1.0000 0.14583  0.82034  0.16553  Biso   1.000  Ne
  Ne111    1.0000 0.10155  0.70563  0.57541  Biso   1.000  Ne
  He111    1.0000 0.10773  0.69290  0.60770  Biso   1.000  He
  He112    1.0000 0.12684  0.66433  0.60400  Biso   1.000  He
  Ne112    1.0000 0.14145  0.64997  0.63078  Biso   1.000  Ne
  Ne113    1.0000 0.38389  0.77103  0.60731  Biso   1.000  Ne
  He113    1.0000 0.40633  0.79157  0.59500  Biso   1.000  He
  He114    1.0000 0.39465  0.82073  0.58682  Biso   1.000  He
  Ne114    1.0000 0.41724  0.84379  0.57395  Biso   1.000  Ne
  Ne115    1.0000 0.63039  0.89755  0.71397  Biso   1.000  Ne
  He115    1.0000 0.65669  0.89016  0.69399  Biso   1.000  He
  He116    1.0000 0.66145  0.91209  0.67007  Biso   1.000  He
  Ne116    1.0000 0.68197  0.90504  0.64757  Biso   1.000  Ne
  Ne117    1.0000 0.40325  0.35630  0.20445  Biso   1.000  Ne
  He117    1.0000 0.40613  0.38194  0.18222  Biso   1.000  He
  He118    1.0000 0.42367  0.37761  0.15520  Biso   1.000  He
  Ne118    1.0000 0.45566  0.38480  0.15477  Biso   1.000  Ne
  Ne119    1.0000 0.71679  0.83072  0.97652  Biso   1.000  Ne
  He119    1.0000 0.73602  0.83876  0.95010  Biso   1.000  He
  He120    1.0000 0.73501  0.86788  0.93619  Biso   1.000  He
  Ne120    1.0000 0.75655  0.87006  0.91311  Biso   1.000  Ne
  Ne121    1.0000 0.18920  0.60977  0.57364  Biso   1.000  Ne
  He121    1.0000 0.17719  0.57888  0.57651  Biso   1.000  He
  He122    1.0000 0.14548  0.57639  0.56619  Biso   1.000  He
  Ne122    1.0000 0.13356  0.54662  0.57118  Biso   1.000  Ne
  Ne123    1.0000 0.58967  0.06752  0.21534  Biso   1.000  Ne
  He123    1.0000 0.55872  0.07373  0.21850  Biso   1.000  He
  He124    1.0000 0.53822  0.06840  0.19348  Biso   1.000  He
  Ne124    1.0000 0.50734  0.07370  0.19912  Biso   1.000  Ne
  Ne125    1.0000 0.57485  0.94504  0.39227  Biso   1.000  Ne
  He125    1.0000 0.55354  0.94544  0.41621  Biso   1.000  He
  He126    1.0000 0.54019  0.91433  0.42002  Biso   1.000  He
  Ne126    1.0000 0.51908  0.91221  0.44569  Biso   1.000  Ne
  Ne127    1.0000 0.70944  0.39800  0.85770  Biso   1.000  Ne
  He127    1.0000 0.71293  0.36474  0.86001  Biso   1.000  He
  He128    1.0000 0.71136  0.35258  0.88860  Biso   1.000  He
  Ne128    1.0000 0.72085  0.32245  0.89280  Biso   1.000  Ne
  Ne129    1.0000 0.94799  0.78747  0.10593  Biso   1.000  Ne
  He129    1.0000 0.92303  0.79635  0.08740  Biso   1.000  He
  He130    1.0000 0.89829  0.80785  0.10612  Biso   1.000  He
  Ne130    1.0000 0.86680  0.81920  0.09072  Biso   1.000  Ne
  Ne131    1.0000 0.57160  0.45881  0.68204  Biso   1.000  Ne
  He131    1.0000 0.56804  0.43163  0.70216  Biso   1.000  He
  He132    1.0000 0.58946  0.40927  0.69682  Biso   1.000  He
  Ne132    1.0000 0.58679  0.38302  0.71440  Biso   1.000  Ne
  Ne133    1.0000 0.14983  0.93578  0.88586  Biso   1.000  Ne
  He133    1.0000 0.13324  0.92737  0.85533  Biso   1.000  He
  He134    1.0000 0.14518  0.90046  0.83721  Biso   1.000  He
  Ne134    1.0000 0.13111  0.89638  0.80689  Biso   1.000  Ne
  Ne135    1.0000 0.09558  0.22188  0.05557  Biso   1.000  Ne
  He135    1.0000 0.12634  0.22308  0.06218  Biso   1.000  He
  He136    1.0000 0.14002  0.25181  0.07281  Biso   1.000  He
  Ne136    1.0000 0.17365  0.24993  0.08173  Biso   1.000  Ne
  Ne137    1.0000 0.20109  0.88250  0.16179  Biso   1.000  Ne
  He137    1.0000 0.19650  0.89772  0.13125  Biso   1.000  He
  He138    1.0000 0.18364  0.87819  0.10582  Biso   1.000  He
  Ne138    1.0000 0.17601  0.89711  0.07782  Biso   1.000  Ne
  Ne139    1.0000 0.13853  0.27318  0.40090  Biso   1.000  Ne
  He139    1.0000 0.12176  0.29911  0.41406  Biso   1.000  He
  He140    1.0000 0.10404  0.31832  0.39349  Biso   1.000  He
  Ne140    1.0000 0.09229  0.34292  0.41100  Biso   1.000  Ne
  Ne141    1.0000 0.84296  0.73816  0.55798  Biso   1.000  Ne
  He141    1.0000 0.87266  0.72352  0.56331  Biso   1.000  He
  He142    1.0000 0.86928  0.69094  0.56884  Biso   1.000  He
  Ne142    1.0000 0.89683  0.67793  0.57205  Biso   1.000  Ne
  Ne143    1.0000 0.69735  0.58042  0.18871  Biso   1.000  Ne
  He143    1.0000 0.70537  0.58701  0.15599  Biso   1.000  He
  He144    1.0000 0.72195  0.61553  0.15021  Biso   1.000  He
  Ne144    1.0000 0.72890  0.62213  0.11593  Biso   1.000  Ne
  Ne145    1.0000 0.89461  0.58846  0.55418  Biso   1.000  Ne
  He145    1.0000 0.87115  0.57538  0.57356  Biso   1.000  He
  He146    1.0000 0.84005  0.58867  0.56936  Biso   1.000  He
  Ne146    1.0000 0.81572  0.56980  0.58119  Biso   1.000  Ne
  Ne147    1.0000 0.42473  0.27638  0.17250  Biso   1.000  Ne
  He147    1.0000 0.43131  0.25418  0.15105  Biso   1.000  He
  He148    1.0000 0.41120  0.25301  0.12370  Biso   1.000  He
  Ne148    1.0000 0.41859  0.23077  0.09913  Biso   1.000  Ne
  Ne149    1.0000 0.24164  0.12411  0.09415  Biso   1.000  Ne
  He149    1.0000 0.21333  0.10414  0.09420  Biso   1.000  He
  He150    1.0000 0.21124  0.07918  0.11585  Biso   1.000  He
  Ne150    1.0000 0.18857  0.05604  0.10801  Biso   1.000  Ne
  Ne151    1.0000 0.60878  0.10202  0.66101  Biso   1.000  Ne
  He151    1.0000 0.60637  0.07849  0.68434  Biso   1.000  He
  He152    1.0000 0.61171  0.09219  0.71448  Biso   1.000  He
  Ne152    1.0000 0.61638  0.06790  0.73684  Biso   1.000  Ne
  Ne153    1.0000 0.85766  0.23418  0.91280  Biso   1.000  Ne
  He153    1.0000 0.83069  0.25278  0.91153  Biso   1.000  He
  He154    1.0000 0.83688  0.28390  0.90424  Biso   1.000  He
  Ne154    1.0000 0.80997  0.30264  0.90879  Biso   1.000  Ne
  Ne155    1.0000 0.08707  0.08480  0.08148  Biso   1.000  Ne
  He155    1.0000 0.11326  0.10035  0.06892  Biso   1.000  He
  He156    1.0000 0.12070  0.12760  0.08850  Biso   1.000  He
  Ne156    1.0000 0.14979  0.14609  0.08360  Biso   1.000  Ne
  Ne157    1.0000 0.08054  0.88474  0.92980  Biso   1.000  Ne
  He157    1.0000 0.11152  0.88177  0.92301  Biso   1.000  He
  He158    1.0000 0.12091  0.85465  0.90894  Biso   1.000  He
  Ne158    1.0000 0.15577  0.84763  0.90913  Biso   1.000  Ne
  Ne159    1.0000 0.71799  0.68457  0.76940  Biso   1.000  Ne
  He159    1.0000 0.69238  0.70265  0.77464  Biso   1.000  He
  He160    1.0000 0.69482  0.73672  0.76772  Biso   1.000  He
  Ne160    1.0000 0.66598  0.75036  0.76833  Biso   1.000  Ne
  Ne161    1.0000 0.11744  0.21115  0.14777  Biso   1.000  Ne
  He161    1.0000 0.10437  0.20065  0.17530  Biso   1.000  He
  He162    1.0000 0.09893  0.22581  0.19837  Biso   1.000  He
  Ne162    1.0000 0.08014  0.21630  0.22418  Biso   1.000  Ne
  Ne163    1.0000 0.68237  0.80296  0.31975  Biso   1.000  Ne
  He163    1.0000 0.70702  0.78346  0.32872  Biso   1.000  He
  He164    1.0000 0.70661  0.77098  0.35921  Biso   1.000  He
  Ne164    1.0000 0.73094  0.75544  0.37043  Biso   1.000  Ne
  Ne165    1.0000 0.13687  0.43020  0.43171  Biso   1.000  Ne
  He165    1.0000 0.16364  0.41323  0.42082  Biso   1.000  He
  He166    1.0000 0.15851  0.38294  0.40965  Biso   1.000  He
  Ne166    1.0000 0.18612  0.36573  0.40178  Biso   1.000  Ne
  Ne167    1.0000 0.44900  0.73266  0.43036  Biso   1.000  Ne
  He167    1.0000 0.44689  0.71198  0.40446  Biso   1.000  He
  He168    1.0000 0.42675  0.72167  0.37968  Biso   1.000  He
  Ne168    1.0000 0.42350  0.69422  0.35610  Biso   1.000  Ne
  Ne169    1.0000 0.38111  0.37561  0.80875  Biso   1.000  Ne
  He169    1.0000 0.35918  0.38878  0.78828  Biso   1.000  He
  He170    1.0000 0.34319  0.37245  0.76599  Biso   1.000  He
  Ne170    1.0000 0.32440  0.38828  0.74712  Biso   1.000  Ne
  Ne171    1.0000 0.61355  0.75049  0.14670  Biso   1.000  Ne
  He171    1.0000 0.62360  0.73329  0.17223  Biso   1.000  He
  He172    1.0000 0.61057  0.70198  0.17451  Biso   1.000  He
  Ne172    1.0000 0.61936  0.68596  0.20154  Biso   1.000  Ne
  Ne173    1.0000 0.46104  0.82526  0.66059  Biso   1.000  Ne
  He173    1.0000 0.44198  0.84396  0.67970  Biso   1.000  He
  He174    1.0000 0.44029  0.87550  0.67329  Biso   1.000  He
  Ne174    1.0000 0.41886  0.89631  0.69165  Biso   1.000  Ne
  Ne175    1.0000 0.22388  0.90125  0.85252  Biso   1.000  Ne
  He175    1.0000 0.22637  0.89969  0.88596  Biso   1.000  He
  He176    1.0000 0.25516  0.89714  0.90118  Biso   1.000  He
  Ne176    1.0000 0.25663  0.90000  0.93560  Biso   1.000  Ne
  Ne177    1.0000 0.57079  0.69708  0.62607  Biso   1.000  Ne
  He177    1.0000 0.57520  0.69668  0.59272  Biso   1.000  He
  He178    1.0000 0.59372  0.72171  0.58389  Biso   1.000  He
  Ne178    1.0000 0.60146  0.72137  0.55145  Biso   1.000  Ne
  Ne179    1.0000 0.59127  0.06673  0.37609  Biso   1.000  Ne
  He179    1.0000 0.60845  0.08673  0.39684  Biso   1.000  He
  He180    1.0000 0.61584  0.11427  0.38252  Biso   1.000  He
  Ne180    1.0000 0.62536  0.14006  0.40240  Biso   1.000  Ne
  Ne181    1.0000 0.20076  0.57121  0.38298  Biso   1.000  Ne
  He181    1.0000 0.22925  0.55707  0.38644  Biso   1.000  He
  He182    1.0000 0.25013  0.57163  0.40795  Biso   1.000  He
  Ne182    1.0000 0.27512  0.54939  0.41731  Biso   1.000  Ne
  Ne183    1.0000 0.58189  0.40080  0.07564  Biso   1.000  Ne
  He183    1.0000 0.60945  0.39605  0.05964  Biso   1.000  He
  He184    1.0000 0.63514  0.40635  0.07901  Biso   1.000  He
  Ne184    1.0000 0.66538  0.39302  0.07257  Biso   1.000  Ne
  Ne185    1.0000 0.34828  0.59111  0.07722  Biso   1.000  Ne
  He185    1.0000 0.34176  0.58504  0.10837  Biso   1.000  He
  He186    1.0000 0.33184  0.55374  0.11580  Biso   1.000  He
  Ne186    1.0000 0.32593  0.54773  0.14701  Biso   1.000  Ne
  Ne187    1.0000 0.23718  0.52634  0.80890  Biso   1.000  Ne
  He187    1.0000 0.22616  0.54086  0.83504  Biso   1.000  He
  He188    1.0000 0.24750  0.55428  0.85806  Biso   1.000  He
  Ne188    1.0000 0.23204  0.56656  0.88243  Biso   1.000  Ne
  Ne189    1.0000 0.95230  0.04013  0.87918  Biso   1.000  Ne
  He189    1.0000 0.97467  0.05526  0.90055  Biso   1.000  He
  He190    1.0000 0.96269  0.05748  0.93187  Biso   1.000  He
  Ne190    1.0000 0.98223  0.07144  0.95279  Biso   1.000  Ne
  Ne191    1.0000 0.89066  0.31966  0.57378  Biso   1.000  Ne
  He191    1.0000 0.90381  0.29313  0.58625  Biso   1.000  He
  He192    1.0000 0.93744  0.29564  0.58287  Biso   1.000  He
  Ne192    1.0000 0.95521  0.27076  0.59593  Biso   1.000  Ne
  Ne193    1.0000 0.97822  0.44009  0.45103  Biso   1.000  Ne
  He193    1.0000 0.00351  0.43094  0.46940  Biso   1.000  He
  He194    1.0000 0.02327  0.40768  0.45932  Biso   1.000  He
  Ne194    1.0000 0.04422  0.39702  0.48418  Biso   1.000  Ne
  Ne195    1.0000 0.07452  0.03355  0.90344  Biso   1.000  Ne
  He195    1.0000 0.07748  0.02808  0.93547  Biso   1.000  He
  He196    1.0000 0.09746  0.05045  0.95268  Biso   1.000  He
  Ne196    1.0000 0.09720  0.04668  0.98550  Biso   1.000  Ne
  Ne197    1.0000 0.94590  0.57971  0.64631  Biso   1.000  Ne
  He197    1.0000 0.96004  0.59498  0.67338  Biso   1.000  He
  He198    1.0000 0.94007  0.61727  0.69172  Biso   1.000  He
  Ne198    1.0000 0.95485  0.63370  0.71825  Biso   1.000  Ne
  Ne199    1.0000 0.44296  0.55120  0.86313  Biso   1.000  Ne
  He199    1.0000 0.45808  0.54687  0.89165  Biso   1.000  He
  He200    1.0000 0.43877  0.53378  0.91317  Biso   1.000  He
  Ne200    1.0000 0.45596  0.52541  0.94177  Biso   1.000  Ne
  Ne201    1.0000 0.10525  0.12975  0.91655  Biso   1.000  Ne
  He201    1.0000 0.11471  0.14494  0.89203  Biso   1.000  He
  He202    1.0000 0.09824  0.17384  0.88308  Biso   1.000  He
  Ne202    1.0000 0.10811  0.18760  0.85555  Biso   1.000  Ne
  Ne203    1.0000 0.60799  0.14158  0.28633  Biso   1.000  Ne
  He203    1.0000 0.63742  0.13874  0.26901  Biso   1.000  He
  He204    1.0000 0.64860  0.10966  0.26185  Biso   1.000  He
  Ne204    1.0000 0.67757  0.11095  0.24448  Biso   1.000  Ne
  Ne205    1.0000 0.95588  0.37446  0.38110  Biso   1.000  Ne
  He205    1.0000 0.93334  0.35162  0.38735  Biso   1.000  He
  He206    1.0000 0.93936  0.33217  0.41393  Biso   1.000  He
  Ne206    1.0000 0.91532  0.30876  0.41552  Biso   1.000  Ne
  Ne207    1.0000 0.09066  0.11666  0.21301  Biso   1.000  Ne
  He207    1.0000 0.11167  0.09537  0.19966  Biso   1.000  He
  He208    1.0000 0.11098  0.09160  0.16560  Biso   1.000  He
  Ne208    1.0000 0.12847  0.06806  0.15691  Biso   1.000  Ne
  Ne209    1.0000 0.15849  0.75635  0.81272  Biso   1.000  Ne
  He209    1.0000 0.13903  0.77618  0.83002  Biso   1.000  He
  He210    1.0000 0.12802  0.76245  0.85688  Biso   1.000  He
  Ne210    1.0000 0.10755  0.77970  0.87341  Biso   1.000  Ne
  Ne211    1.0000 0.92695  0.17823  0.12892  Biso   1.000  Ne
  He211    1.0000 0.92836  0.17658  0.16099  Biso   1.000  He
  He212    1.0000 0.89722  0.17541  0.17287  Biso   1.000  He
  Ne212    1.0000 0.89471  0.17437  0.20730  Biso   1.000  Ne
  Ne213    1.0000 0.32957  0.71964  0.13116  Biso   1.000  Ne
  He213    1.0000 0.34815  0.70906  0.15537  Biso   1.000  He
  He214    1.0000 0.36719  0.68390  0.14948  Biso   1.000  He
  Ne214    1.0000 0.38132  0.67203  0.17846  Biso   1.000  Ne
  Ne215    1.0000 0.60025  0.87777  0.32274  Biso   1.000  Ne
  He215    1.0000 0.61062  0.85468  0.29944  Biso   1.000  He
  He216    1.0000 0.60496  0.85698  0.26824  Biso   1.000  He
  Ne216    1.0000 0.62359  0.83773  0.24990  Biso   1.000  Ne
  Ne217    1.0000 0.71224  0.59981  0.82872  Biso   1.000  Ne
  He217    1.0000 0.69884  0.58140  0.85379  Biso   1.000  He
  He218    1.0000 0.70853  0.58785  0.88647  Biso   1.000  He
  Ne218    1.0000 0.69106  0.57269  0.91014  Biso   1.000  Ne
  Ne219    1.0000 0.11523  0.24431  0.58382  Biso   1.000  Ne
  He219    1.0000 0.14099  0.26596  0.58227  Biso   1.000  He
  He220    1.0000 0.13217  0.29691  0.58020  Biso   1.000  He
  Ne220    1.0000 0.15940  0.31650  0.57059  Biso   1.000  Ne
  Ne221    1.0000 0.36315  0.54858  0.83903  Biso   1.000  Ne
  He221    1.0000 0.35121  0.57256  0.85913  Biso   1.000  He
  He222    1.0000 0.33043  0.56320  0.88578  Biso   1.000  He
  Ne222    1.0000 0.32372  0.58673  0.91224  Biso   1.000  Ne
  Ne223    1.0000 0.09730  0.58266  0.35314  Biso   1.000  Ne
  He223    1.0000 0.11342  0.56464  0.33319  Biso   1.000  He
  He224    1.0000 0.14136  0.57761  0.32207  Biso   1.000  He
  Ne224    1.0000 0.15411  0.55658  0.30209  Biso   1.000  Ne
  Ne225    1.0000 0.92995  0.86948  0.21128  Biso   1.000  Ne
  He225    1.0000 0.92347  0.86828  0.17746  Biso   1.000  He
  He226    1.0000 0.91747  0.89945  0.16351  Biso   1.000  He
  Ne226    1.0000 0.92362  0.90250  0.12888  Biso   1.000  Ne
  Ne227    1.0000 0.56624  0.92788  0.51662  Biso   1.000  Ne
  He227    1.0000 0.58762  0.95067  0.50186  Biso   1.000  He
  He228    1.0000 0.58107  0.98546  0.50186  Biso   1.000  He
  Ne228    1.0000 0.60342  0.00251  0.48502  Biso   1.000  Ne
  Ne229    1.0000 0.63393  0.89158  0.42002  Biso   1.000  Ne
  He229    1.0000 0.64724  0.86763  0.40343  Biso   1.000  He
  He230    1.0000 0.63409  0.83633  0.40881  Biso   1.000  He
  Ne230    1.0000 0.64719  0.80998  0.39277  Biso   1.000  Ne
  Ne231    1.0000 0.10619  0.96963  0.01109  Biso   1.000  Ne
  He231    1.0000 0.07903  0.96538  0.02793  Biso   1.000  He
  He232    1.0000 0.08487  0.94396  0.05217  Biso   1.000  He
  Ne232    1.0000 0.05646  0.94070  0.07080  Biso   1.000  Ne
  Ne233    1.0000 0.51585  0.39813  0.01634  Biso   1.000  Ne
  He233    1.0000 0.51785  0.42776  0.00762  Biso   1.000  He
  He234    1.0000 0.48857  0.44136  0.00226  Biso   1.000  He
  Ne234    1.0000 0.49156  0.47638  0.00480  Biso   1.000  Ne
  Ne235    1.0000 0.42648  0.61325  0.89629  Biso   1.000  Ne
  He235    1.0000 0.43883  0.62843  0.86921  Biso   1.000  He
  He236    1.0000 0.41750  0.63504  0.84247  Biso   1.000  He
  Ne236    1.0000 0.43823  0.63997  0.81414  Biso   1.000  Ne
  Ne237    1.0000 0.67634  0.40468  0.75101  Biso   1.000  Ne
  He237    1.0000 0.68421  0.37272  0.74572  Biso   1.000  He
  He238    1.0000 0.69967  0.36403  0.77620  Biso   1.000  He
  Ne238    1.0000 0.70392  0.33157  0.77707  Biso   1.000  Ne
  Ne239    1.0000 0.44015  0.90384  0.30456  Biso   1.000  Ne
  He239    1.0000 0.40936  0.90437  0.30026  Biso   1.000  He
  He240    1.0000 0.39313  0.90872  0.32720  Biso   1.000  He
  Ne240    1.0000 0.35927  0.91155  0.32121  Biso   1.000  Ne
  Ne241    1.0000 0.59239  0.15707  0.75068  Biso   1.000  Ne
  He241    1.0000 0.58632  0.18888  0.73757  Biso   1.000  He
  He242    1.0000 0.61156  0.20158  0.71935  Biso   1.000  He
  Ne242    1.0000 0.60833  0.23101  0.70216  Biso   1.000  Ne
  Ne243    1.0000 0.92842  0.13022  0.91070  Biso   1.000  Ne
  He243    1.0000 0.94160  0.16098  0.91313  Biso   1.000  He
  He244    1.0000 0.92607  0.18406  0.89909  Biso   1.000  He
  Ne244    1.0000 0.94316  0.21418  0.90168  Biso   1.000  Ne
  Ne245    1.0000 0.06377  0.16332  0.29942  Biso   1.000  Ne
  He245    1.0000 0.03895  0.16198  0.31996  Biso   1.000  He
  He246    1.0000 0.03918  0.18598  0.34170  Biso   1.000  He
  Ne246    1.0000 0.02315  0.18179  0.37008  Biso   1.000  Ne
  Ne247    1.0000 0.47070  0.38236  0.91664  Biso   1.000  Ne
  He247    1.0000 0.44770  0.38954  0.89158  Biso   1.000  He
  He248    1.0000 0.45105  0.37353  0.86454  Biso   1.000  He
  Ne248    1.0000 0.43150  0.34505  0.85858  Biso   1.000  Ne
  Ne249    1.0000 0.58932  0.52919  0.93050  Biso   1.000  Ne
  He249    1.0000 0.60534  0.55672  0.92122  Biso   1.000  He
  He250    1.0000 0.59178  0.58385  0.93143  Biso   1.000  He
  Ne250    1.0000 0.61056  0.61402  0.92635  Biso   1.000  Ne
  Ne251    1.0000 0.57606  0.08119  0.55339  Biso   1.000  Ne
  He251    1.0000 0.55575  0.08554  0.52465  Biso   1.000  He
  He252    1.0000 0.53248  0.06334  0.52492  Biso   1.000  He
  Ne252    1.0000 0.51252  0.06501  0.49767  Biso   1.000  Ne
  Ne253    1.0000 0.34783  0.40580  0.89885  Biso   1.000  Ne
  He253    1.0000 0.36469  0.37698  0.90512  Biso   1.000  He
  He254    1.0000 0.34588  0.35137  0.89631  Biso   1.000  He
  Ne254    1.0000 0.35808  0.32246  0.90195  Biso   1.000  Ne
  Ne255    1.0000 0.60186  0.44601  0.91760  Biso   1.000  Ne
  He255    1.0000 0.61296  0.45572  0.88825  Biso   1.000  He
  He256    1.0000 0.61506  0.42905  0.87072  Biso   1.000  He
  Ne256    1.0000 0.62992  0.43024  0.84129  Biso   1.000  Ne
  Ne257    1.0000 0.44059  0.08603  0.56446  Biso   1.000  Ne
  He257    1.0000 0.42483  0.10973  0.58057  Biso   1.000  He
  He258    1.0000 0.40921  0.12942  0.56118  Biso   1.000  He
  Ne258    1.0000 0.39168  0.15281  0.57599  Biso   1.000  Ne
  Ne259    1.0000 0.44554  0.02248  0.43296  Biso   1.000  Ne
  He259    1.0000 0.47209  0.00772  0.42129  Biso   1.000  He
  He260    1.0000 0.49507  0.03110  0.41194  Biso   1.000  He
  Ne260    1.0000 0.52408  0.01986  0.40321  Biso   1.000  Ne
  Ne261    1.0000 0.53168  0.98666  0.56519  Biso   1.000  Ne
  He261    1.0000 0.49844  0.99062  0.56170  Biso   1.000  He
  He262    1.0000 0.47992  0.96563  0.54981  Biso   1.000  He
  Ne262    1.0000 0.44634  0.97319  0.54421  Biso   1.000  Ne
  Ne263    1.0000 0.67453  0.75096  0.55213  Biso   1.000  Ne
  He263    1.0000 0.70634  0.75622  0.56075  Biso   1.000  He
  He264    1.0000 0.72745  0.73348  0.57237  Biso   1.000  He
  Ne264    1.0000 0.75880  0.74772  0.58045  Biso   1.000  Ne
  Ne265    1.0000 0.10465  0.40137  0.63816  Biso   1.000  Ne
  He265    1.0000 0.10240  0.41274  0.60718  Biso   1.000  He
  He266    1.0000 0.09452  0.38918  0.58208  Biso   1.000  He
  Ne266    1.0000 0.09605  0.40436  0.55510  Biso   1.000  Ne
  Ne267    1.0000 0.97352  0.44354  0.56165  Biso   1.000  Ne
  He267    1.0000 0.94744  0.42453  0.56617  Biso   1.000  He
  He268    1.0000 0.93601  0.43451  0.59262  Biso   1.000  He
  Ne268    1.0000 0.91521  0.41282  0.60608  Biso   1.000  Ne
  Ne269    1.0000 0.84828  0.89672  0.08699  Biso   1.000  Ne
  He269    1.0000 0.82201  0.90968  0.07054  Biso   1.000  He
  He270    1.0000 0.79124  0.90367  0.08062  Biso   1.000  He
  Ne270    1.0000 0.76713  0.92585  0.07061  Biso   1.000  Ne
  Ne271    1.0000 0.39730  0.91514  0.41662  Biso   1.000  Ne
  He271    1.0000 0.36535  0.90685  0.40112  Biso   1.000  He
  He272    1.0000 0.35312  0.87509  0.40427  Biso   1.000  He
  Ne272    1.0000 0.32536  0.86647  0.38708  Biso   1.000  Ne
  Ne273    1.0000 0.62184  0.89270  0.56981  Biso   1.000  Ne
  He273    1.0000 0.61957  0.86037  0.57451  Biso   1.000  He
  He274    1.0000 0.63421  0.84648  0.60022  Biso   1.000  He
  Ne274    1.0000 0.62975  0.81396  0.60266  Biso   1.000  Ne
  Ne275    1.0000 0.48934  0.33779  0.66954  Biso   1.000  Ne
  He275    1.0000 0.48107  0.31989  0.69818  Biso   1.000  He
  He276    1.0000 0.46012  0.33799  0.71591  Biso   1.000  He
  Ne276    1.0000 0.44097  0.32111  0.73597  Biso   1.000  Ne
  Ne277    1.0000 0.43667  0.84656  0.41962  Biso   1.000  Ne
  He277    1.0000 0.42197  0.83365  0.39307  Biso   1.000  He
  He278    1.0000 0.43813  0.84182  0.36639  Biso   1.000  He
  Ne278    1.0000 0.42706  0.83085  0.33645  Biso   1.000  Ne
  Ne279    1.0000 0.45382  0.09104  0.74808  Biso   1.000  Ne
  He279    1.0000 0.45249  0.09722  0.71583  Biso   1.000  He
  He280    1.0000 0.43356  0.07688  0.69795  Biso   1.000  He
  Ne280    1.0000 0.43818  0.08464  0.66422  Biso   1.000  Ne
  Ne281    1.0000 0.78770  0.12542  0.05171  Biso   1.000  Ne
  He281    1.0000 0.82371  0.12539  0.05554  Biso   1.000  He
  He282    1.0000 0.84009  0.15144  0.07048  Biso   1.000  He
  Ne282    1.0000 0.87562  0.14718  0.07059  Biso   1.000  Ne
  Ne283    1.0000 0.40863  0.04526  0.79512  Biso   1.000  Ne
  He283    1.0000 0.37640  0.05280  0.78994  Biso   1.000  He
  He284    1.0000 0.36620  0.04858  0.76007  Biso   1.000  He
  Ne284    1.0000 0.33296  0.05940  0.75677  Biso   1.000  Ne
  Ne285    1.0000 0.75509  0.41894  0.63153  Biso   1.000  Ne
  He285    1.0000 0.77723  0.42419  0.66080  Biso   1.000  He
  He286    1.0000 0.81046  0.42040  0.65506  Biso   1.000  He
  Ne286    1.0000 0.82305  0.38948  0.66451  Biso   1.000  Ne
  Ne287    1.0000 0.87447  0.07156  0.80478  Biso   1.000  Ne
  He287    1.0000 0.86587  0.07661  0.83534  Biso   1.000  He
  He288    1.0000 0.87246  0.05319  0.85893  Biso   1.000  He
  Ne288    1.0000 0.85120  0.05164  0.88430  Biso   1.000  Ne
  Ne289    1.0000 0.96179  0.07565  0.80163  Biso   1.000  Ne
  He289    1.0000 0.95823  0.10719  0.81548  Biso   1.000  He
  He290    1.0000 0.94244  0.12957  0.79898  Biso   1.000  He
  Ne290    1.0000 0.93541  0.15555  0.81935  Biso   1.000  Ne
  Ne291    1.0000 0.60853  0.31502  0.07653  Biso   1.000  Ne
  He291    1.0000 0.61368  0.29916  0.10557  Biso   1.000  He
  He292    1.0000 0.64184  0.28373  0.10513  Biso   1.000  He
  Ne292    1.0000 0.64563  0.25989  0.12966  Biso   1.000  Ne
  Ne293    1.0000 0.21710  0.13825  0.89348  Biso   1.000  Ne
  He293    1.0000 0.21112  0.11375  0.91479  Biso   1.000  He
  He294    1.0000 0.19100  0.08938  0.90333  Biso   1.000  He
  Ne294    1.0000 0.18312  0.06909  0.92700  Biso   1.000  Ne
  Ne295    1.0000 0.48913  0.55880  0.02442  Biso   1.000  Ne
  He295    1.0000 0.46341  0.55278  0.04496  Biso   1.000  He
  He296    1.0000 0.47230  0.55409  0.07772  Biso   1.000  He
  Ne296    1.0000 0.44902  0.54863  0.10031  Biso   1.000  Ne
  Ne297    1.0000 0.11355  0.90997  0.20345  Biso   1.000  Ne
  He297    1.0000 0.13983  0.89832  0.21892  Biso   1.000  He
  He298    1.0000 0.14603  0.91240  0.24938  Biso   1.000  He
  Ne298    1.0000 0.17124  0.90286  0.26902  Biso   1.000  Ne
  Ne299    1.0000 0.75028  0.09422  0.31583  Biso   1.000  Ne
  He299    1.0000 0.72354  0.07477  0.31083  Biso   1.000  He
  He300    1.0000 0.69614  0.08286  0.33111  Biso   1.000  He
  Ne300    1.0000 0.66840  0.06404  0.32647  Biso   1.000  Ne
