data_image0
_cell_length_a       46.537
_cell_length_b       46.925
_cell_length_c       46.5728
_cell_angle_alpha    90
_cell_angle_beta     90
_cell_angle_gamma    90

_symmetry_space_group_name_H-M    "P 1"
_symmetry_int_tables_number       1

loop_
  _symmetry_equiv_pos_as_xyz
  'x, y, z'

loop_
  _atom_site_label
  _atom_site_occupancy
  _atom_site_fract_x
  _atom_site_fract_y
  _atom_site_fract_z
  _atom_site_thermal_displace_type
  _atom_site_B_iso_or_equiv
  _atom_site_type_symbol
  Ne1      1.0000 0.58218  0.02324  0.58112  Biso   1.000  Ne
  He1      1.0000 0.59773  0.03854  0.55348  Biso   1.000  He
  He2      1.0000 0.57606  0.03790  0.52665  Biso   1.000  He
  Ne2      1.0000 0.58804  0.05493  0.50142  Biso   1.000  Ne
  Ne3      1.0000 0.17923  0.45572  0.82537  Biso   1.000  Ne
  He3      1.0000 0.18120  0.45038  0.79118  Biso   1.000  He
  He4      1.0000 0.19126  0.42411  0.78293  Biso   1.000  He
  Ne4      1.0000 0.19816  0.42117  0.75078  Biso   1.000  Ne
  Ne5      1.0000 0.40510  0.88422  0.57147  Biso   1.000  Ne
  He5      1.0000 0.43832  0.89421  0.57508  Biso   1.000  He
  He6      1.0000 0.44966  0.90980  0.59945  Biso   1.000  He
  Ne6      1.0000 0.48112  0.91920  0.59869  Biso   1.000  Ne
  Ne7      1.0000 0.97792  0.96968  0.92831  Biso   1.000  Ne
  He7      1.0000 0.97829  0.95364  0.95691  Biso   1.000  He
  He8      1.0000 0.95829  0.92978  0.96171  Biso   1.000  He
  Ne8      1.0000 0.95286  0.91999  0.99391  Biso   1.000  Ne
  Ne9      1.0000 0.78712  0.06584  0.42148  Biso   1.000  Ne
  He9      1.0000 0.78913  0.09425  0.43414  Biso   1.000  He
  He10     1.0000 0.75971  0.11017  0.42849  Biso   1.000  He
  Ne10     1.0000 0.76264  0.14323  0.43461  Biso   1.000  Ne
  Ne11     1.0000 0.77226  0.55015  0.41262  Biso   1.000  Ne
  He11     1.0000 0.80176  0.56680  0.41250  Biso   1.000  He
  He12     1.0000 0.81927  0.56437  0.43867  Biso   1.000  He
  Ne12     1.0000 0.84790  0.58172  0.43968  Biso   1.000  Ne
  Ne13     1.0000 0.44420  0.97878  0.46148  Biso   1.000  Ne
  He13     1.0000 0.46351  0.00503  0.46503  Biso   1.000  He
  He14     1.0000 0.44423  0.02991  0.47345  Biso   1.000  He
  Ne14     1.0000 0.46315  0.06023  0.47577  Biso   1.000  Ne
  Ne15     1.0000 0.39407  0.83462  0.41258  Biso   1.000  Ne
  He15     1.0000 0.42244  0.84206  0.42987  Biso   1.000  He
  He16     1.0000 0.43338  0.87158  0.42686  Biso   1.000  He
  Ne16     1.0000 0.45880  0.88043  0.44395  Biso   1.000  Ne
  Ne17     1.0000 0.40775  0.38031  0.76746  Biso   1.000  Ne
  He17     1.0000 0.37951  0.37285  0.75603  Biso   1.000  He
  He18     1.0000 0.36146  0.40148  0.75116  Biso   1.000  He
  Ne18     1.0000 0.33328  0.39887  0.73602  Biso   1.000  Ne
  Ne19     1.0000 0.62005  0.55383  0.95257  Biso   1.000  Ne
  He19     1.0000 0.63332  0.58094  0.94667  Biso   1.000  He
  He20     1.0000 0.66646  0.57791  0.94694  Biso   1.000  He
  Ne20     1.0000 0.68517  0.60495  0.94364  Biso   1.000  Ne
  Ne21     1.0000 0.94302  0.99512  0.08014  Biso   1.000  Ne
  He21     1.0000 0.95305  0.02457  0.08280  Biso   1.000  He
  He22     1.0000 0.93392  0.04717  0.06791  Biso   1.000  He
  Ne22     1.0000 0.94268  0.07855  0.07599  Biso   1.000  Ne
  Ne23     1.0000 0.12710  0.19847  0.63828  Biso   1.000  Ne
  He23     1.0000 0.13202  0.21899  0.66527  Biso   1.000  He
  He24     1.0000 0.10467  0.23092  0.67943  Biso   1.000  He
  Ne24     1.0000 0.10859  0.25593  0.69969  Biso   1.000  Ne
  Ne25     1.0000 0.94174  0.41450  0.43284  Biso   1.000  Ne
  He25     1.0000 0.92979  0.38385  0.43661  Biso   1.000  He
  He26     1.0000 0.91120  0.37414  0.40892  Biso   1.000  He
  Ne26     1.0000 0.89221  0.34939  0.41451  Biso   1.000  Ne
  Ne27     1.0000 0.12796  0.16885  0.91149  Biso   1.000  Ne
  He27     1.0000 0.11696  0.16149  0.88159  Biso   1.000  He
  He28     1.0000 0.10678  0.12857  0.87798  Biso   1.000  He
  Ne28     1.0000 0.09788  0.11982  0.84778  Biso   1.000  Ne
  Ne29     1.0000 0.34066  0.90303  0.64780  Biso   1.000  Ne
  He29     1.0000 0.36643  0.90770  0.66913  Biso   1.000  He
  He30     1.0000 0.39454  0.90982  0.65326  Biso   1.000  He
  Ne30     1.0000 0.41805  0.91587  0.67575  Biso   1.000  Ne
  Ne31     1.0000 0.61017  0.17344  0.41042  Biso   1.000  Ne
  He31     1.0000 0.61467  0.20455  0.40180  Biso   1.000  He
  He32     1.0000 0.62235  0.22300  0.42751  Biso   1.000  He
  Ne32     1.0000 0.63298  0.25366  0.41741  Biso   1.000  Ne
  Ne33     1.0000 0.62072  0.41432  0.26425  Biso   1.000  Ne
  He33     1.0000 0.61375  0.41380  0.23310  Biso   1.000  He
  He34     1.0000 0.63832  0.40453  0.21203  Biso   1.000  He
  Ne34     1.0000 0.63028  0.40773  0.18123  Biso   1.000  Ne
  Ne35     1.0000 0.11191  0.20374  0.19554  Biso   1.000  Ne
  He35     1.0000 0.14327  0.20123  0.18304  Biso   1.000  He
  He36     1.0000 0.14571  0.17098  0.17217  Biso   1.000  He
  Ne36     1.0000 0.17390  0.16260  0.15523  Biso   1.000  Ne
  Ne37     1.0000 0.90455  0.54314  0.58180  Biso   1.000  Ne
  He37     1.0000 0.93494  0.54559  0.56610  Biso   1.000  He
  He38     1.0000 0.94258  0.57427  0.55287  Biso   1.000  He
  Ne38     1.0000 0.97174  0.57583  0.54146  Biso   1.000  Ne
  Ne39     1.0000 0.42472  0.20677  0.29652  Biso   1.000  Ne
  He39     1.0000 0.42892  0.20461  0.26280  Biso   1.000  He
  He40     1.0000 0.41884  0.17639  0.25017  Biso   1.000  He
  Ne40     1.0000 0.42602  0.17625  0.21728  Biso   1.000  Ne
  Ne41     1.0000 0.60514  0.82128  0.41266  Biso   1.000  Ne
  He41     1.0000 0.61024  0.78881  0.40758  Biso   1.000  He
  He42     1.0000 0.59778  0.77588  0.37881  Biso   1.000  He
  Ne42     1.0000 0.60357  0.74354  0.37070  Biso   1.000  Ne
  Ne43     1.0000 0.42782  0.57120  0.83910  Biso   1.000  Ne
  He43     1.0000 0.39663  0.56897  0.85223  Biso   1.000  He
  He44     1.0000 0.37290  0.58329  0.83475  Biso   1.000  He
  Ne44     1.0000 0.35491  0.56608  0.81371  Biso   1.000  Ne
  Ne45     1.0000 0.12908  0.27963  0.35581  Biso   1.000  Ne
  He45     1.0000 0.13500  0.25376  0.37676  Biso   1.000  He
  He46     1.0000 0.11845  0.25542  0.40411  Biso   1.000  He
  Ne46     1.0000 0.11968  0.23169  0.42261  Biso   1.000  Ne
  Ne47     1.0000 0.02006  0.52933  0.58357  Biso   1.000  Ne
  He47     1.0000 0.05286  0.54059  0.58750  Biso   1.000  He
  He48     1.0000 0.07067  0.54074  0.56092  Biso   1.000  He
  Ne48     1.0000 0.10430  0.54865  0.56596  Biso   1.000  Ne
  Ne49     1.0000 0.46134  0.37077  0.92630  Biso   1.000  Ne
  He49     1.0000 0.45232  0.37630  0.89513  Biso   1.000  He
  He50     1.0000 0.46602  0.39939  0.88047  Biso   1.000  He
  Ne50     1.0000 0.45618  0.40584  0.84728  Biso   1.000  Ne
  Ne51     1.0000 0.96252  0.26826  0.38638  Biso   1.000  Ne
  He51     1.0000 0.93604  0.25064  0.39409  Biso   1.000  He
  He52     1.0000 0.93445  0.21950  0.38022  Biso   1.000  He
  Ne52     1.0000 0.90516  0.20553  0.38949  Biso   1.000  Ne
  Ne53     1.0000 0.08205  0.51418  0.44520  Biso   1.000  Ne
  He53     1.0000 0.07111  0.53729  0.46585  Biso   1.000  He
  He54     1.0000 0.05274  0.55897  0.45392  Biso   1.000  He
  Ne54     1.0000 0.04070  0.57664  0.47961  Biso   1.000  Ne
  Ne55     1.0000 0.61952  0.29364  0.07152  Biso   1.000  Ne
  He55     1.0000 0.62925  0.30147  0.10371  Biso   1.000  He
  He56     1.0000 0.60512  0.32163  0.11350  Biso   1.000  He
  Ne56     1.0000 0.61561  0.33955  0.14109  Biso   1.000  Ne
  Ne57     1.0000 0.05882  0.93234  0.95931  Biso   1.000  Ne
  He57     1.0000 0.06045  0.90329  0.94306  Biso   1.000  He
  He58     1.0000 0.07205  0.90357  0.91325  Biso   1.000  He
  Ne58     1.0000 0.07045  0.87284  0.89793  Biso   1.000  Ne
  Ne59     1.0000 0.33422  0.57545  0.11509  Biso   1.000  Ne
  He59     1.0000 0.35409  0.55333  0.09741  Biso   1.000  He
  He60     1.0000 0.38747  0.55941  0.09991  Biso   1.000  He
  Ne60     1.0000 0.40337  0.53807  0.07940  Biso   1.000  Ne
  Ne61     1.0000 0.42531  0.20029  0.60483  Biso   1.000  Ne
  He61     1.0000 0.41243  0.19613  0.63517  Biso   1.000  He
  He62     1.0000 0.42257  0.21596  0.65849  Biso   1.000  He
  Ne62     1.0000 0.41478  0.20790  0.68930  Biso   1.000  Ne
  Ne63     1.0000 0.26507  0.90008  0.41285  Biso   1.000  Ne
  He63     1.0000 0.29537  0.90670  0.39599  Biso   1.000  He
  He64     1.0000 0.32307  0.89608  0.41135  Biso   1.000  He
  Ne64     1.0000 0.35044  0.90160  0.39217  Biso   1.000  Ne
  Ne65     1.0000 0.59959  0.66902  0.94832  Biso   1.000  Ne
  He65     1.0000 0.58947  0.68790  0.91987  Biso   1.000  He
  He66     1.0000 0.59866  0.67408  0.88987  Biso   1.000  He
  Ne66     1.0000 0.59549  0.69010  0.86191  Biso   1.000  Ne
  Ne67     1.0000 0.57285  0.93123  0.59348  Biso   1.000  Ne
  He67     1.0000 0.56864  0.94962  0.56635  Biso   1.000  He
  He68     1.0000 0.59246  0.94546  0.54452  Biso   1.000  He
  Ne68     1.0000 0.58430  0.95989  0.51466  Biso   1.000  Ne
  Ne69     1.0000 0.37256  0.54551  0.28630  Biso   1.000  Ne
  He69     1.0000 0.39227  0.54544  0.26075  Biso   1.000  He
  He70     1.0000 0.42109  0.56057  0.26858  Biso   1.000  He
  Ne70     1.0000 0.44476  0.55914  0.24465  Biso   1.000  Ne
  Ne71     1.0000 0.23689  0.69694  0.12165  Biso   1.000  Ne
  He71     1.0000 0.26436  0.69252  0.10639  Biso   1.000  He
  He72     1.0000 0.29150  0.68968  0.12514  Biso   1.000  He
  Ne72     1.0000 0.32052  0.68876  0.10795  Biso   1.000  Ne
  Ne73     1.0000 0.60943  0.87145  0.34258  Biso   1.000  Ne
  He73     1.0000 0.62942  0.89147  0.32385  Biso   1.000  He
  He74     1.0000 0.66072  0.88174  0.32514  Biso   1.000  He
  Ne74     1.0000 0.68248  0.89826  0.30952  Biso   1.000  Ne
  Ne75     1.0000 0.68589  0.58163  0.12219  Biso   1.000  Ne
  He75     1.0000 0.70894  0.56700  0.10030  Biso   1.000  He
  He76     1.0000 0.73743  0.58360  0.10240  Biso   1.000  He
  Ne76     1.0000 0.76571  0.56593  0.09203  Biso   1.000  Ne
  Ne77     1.0000 0.43482  0.33439  0.16750  Biso   1.000  Ne
  He77     1.0000 0.45016  0.30554  0.16546  Biso   1.000  He
  He78     1.0000 0.42938  0.27889  0.15900  Biso   1.000  He
  Ne78     1.0000 0.44460  0.24804  0.15872  Biso   1.000  Ne
  Ne79     1.0000 0.78184  0.76996  0.42244  Biso   1.000  Ne
  He79     1.0000 0.75721  0.77850  0.44514  Biso   1.000  He
  He80     1.0000 0.73559  0.80277  0.43501  Biso   1.000  He
  Ne80     1.0000 0.71314  0.81122  0.45492  Biso   1.000  Ne
  Ne81     1.0000 0.43574  0.70872  0.22409  Biso   1.000  Ne
  He81     1.0000 0.42668  0.67829  0.21532  Biso   1.000  He
  He82     1.0000 0.42492  0.67217  0.18217  Biso   1.000  He
  Ne82     1.0000 0.42255  0.64008  0.17834  Biso   1.000  Ne
  Ne83     1.0000 0.82214  0.17062  0.90821  Biso   1.000  Ne
  He83     1.0000 0.84741  0.14866  0.91330  Biso   1.000  He
  He84     1.0000 0.84080  0.12528  0.93145  Biso   1.000  He
  Ne84     1.0000 0.86831  0.10975  0.94526  Biso   1.000  Ne
  Ne85     1.0000 0.60491  0.47902  0.06581  Biso   1.000  Ne
  He85     1.0000 0.60080  0.44846  0.04971  Biso   1.000  He
  He86     1.0000 0.57748  0.42841  0.06514  Biso   1.000  He
  Ne86     1.0000 0.57905  0.39599  0.05359  Biso   1.000  Ne
  Ne87     1.0000 0.89394  0.67827  0.07830  Biso   1.000  Ne
  He87     1.0000 0.87694  0.66858  0.10114  Biso   1.000  He
  He88     1.0000 0.84404  0.66844  0.09176  Biso   1.000  He
  Ne88     1.0000 0.82535  0.66046  0.11685  Biso   1.000  Ne
  Ne89     1.0000 0.23658  0.49951  0.96379  Biso   1.000  Ne
  He89     1.0000 0.22443  0.53110  0.95537  Biso   1.000  He
  He90     1.0000 0.24286  0.55809  0.95144  Biso   1.000  He
  Ne90     1.0000 0.22688  0.58387  0.93699  Biso   1.000  Ne
  Ne91     1.0000 0.74151  0.73269  0.63371  Biso   1.000  Ne
  He91     1.0000 0.76294  0.73145  0.61007  Biso   1.000  He
  He92     1.0000 0.79349  0.72395  0.62093  Biso   1.000  He
  Ne92     1.0000 0.81701  0.71971  0.59911  Biso   1.000  Ne
  Ne93     1.0000 0.63859  0.71061  0.10418  Biso   1.000  Ne
  He93     1.0000 0.66328  0.68899  0.10365  Biso   1.000  He
  He94     1.0000 0.68885  0.69838  0.12286  Biso   1.000  He
  Ne94     1.0000 0.71154  0.67502  0.12351  Biso   1.000  Ne
  Ne95     1.0000 0.83351  0.08222  0.83355  Biso   1.000  Ne
  He95     1.0000 0.82260  0.08373  0.86371  Biso   1.000  He
  He96     1.0000 0.78964  0.08596  0.86458  Biso   1.000  He
  Ne96     1.0000 0.78010  0.09142  0.89653  Biso   1.000  Ne
  Ne97     1.0000 0.08692  0.73494  0.93934  Biso   1.000  Ne
  He97     1.0000 0.07571  0.74812  0.91249  Biso   1.000  He
  He98     1.0000 0.08014  0.78036  0.90565  Biso   1.000  He
  Ne98     1.0000 0.07056  0.78714  0.87600  Biso   1.000  Ne
  Ne99     1.0000 0.73727  0.08962  0.32594  Biso   1.000  Ne
  He99     1.0000 0.73360  0.07384  0.35293  Biso   1.000  He
  He100    1.0000 0.70392  0.07370  0.36760  Biso   1.000  He
  Ne100    1.0000 0.70065  0.05498  0.39546  Biso   1.000  Ne
  Ne101    1.0000 0.29857  0.05543  0.58264  Biso   1.000  Ne
  He101    1.0000 0.28450  0.07068  0.60948  Biso   1.000  He
  He102    1.0000 0.30508  0.06830  0.63565  Biso   1.000  He
  Ne102    1.0000 0.29339  0.07498  0.66596  Biso   1.000  Ne
  Ne103    1.0000 0.95302  0.18144  0.89870  Biso   1.000  Ne
  He103    1.0000 0.93737  0.17484  0.86841  Biso   1.000  He
  He104    1.0000 0.94331  0.14490  0.85776  Biso   1.000  He
  Ne104    1.0000 0.93096  0.13277  0.83075  Biso   1.000  Ne
  Ne105    1.0000 0.51714  0.03473  0.91521  Biso   1.000  Ne
  He105    1.0000 0.53611  0.02568  0.88821  Biso   1.000  He
  He106    1.0000 0.56968  0.03256  0.89096  Biso   1.000  He
  Ne106    1.0000 0.59106  0.01716  0.86985  Biso   1.000  Ne
  Ne107    1.0000 0.94407  0.92549  0.15053  Biso   1.000  Ne
  He107    1.0000 0.94132  0.90793  0.12201  Biso   1.000  He
  He108    1.0000 0.91897  0.91866  0.10016  Biso   1.000  He
  Ne108    1.0000 0.91659  0.90253  0.07356  Biso   1.000  Ne
  Ne109    1.0000 0.55164  0.14913  0.16981  Biso   1.000  Ne
  He109    1.0000 0.52806  0.12533  0.17859  Biso   1.000  He
  He110    1.0000 0.50046  0.14008  0.19270  Biso   1.000  He
  Ne110    1.0000 0.47673  0.12184  0.20783  Biso   1.000  Ne
  Ne111    1.0000 0.67262  0.57917  0.85047  Biso   1.000  Ne
  He111    1.0000 0.64502  0.57530  0.86654  Biso   1.000  He
  He112    1.0000 0.61779  0.58544  0.85263  Biso   1.000  He
  Ne112    1.0000 0.59326  0.58251  0.87189  Biso   1.000  Ne
  Ne113    1.0000 0.67265  0.40941  0.89611  Biso   1.000  Ne
  He113    1.0000 0.64605  0.39745  0.91586  Biso   1.000  He
  He114    1.0000 0.61829  0.39432  0.89816  Biso   1.000  He
  Ne114    1.0000 0.58982  0.37839  0.91235  Biso   1.000  Ne
  Ne115    1.0000 0.52381  0.56328  0.08269  Biso   1.000  Ne
  He115    1.0000 0.54025  0.56421  0.05589  Biso   1.000  He
  He116    1.0000 0.54777  0.53453  0.04401  Biso   1.000  He
  Ne116    1.0000 0.56138  0.53396  0.01516  Biso   1.000  Ne
  Ne117    1.0000 0.34727  0.06860  0.72505  Biso   1.000  Ne
  He117    1.0000 0.36927  0.07490  0.70428  Biso   1.000  He
  He118    1.0000 0.38470  0.10745  0.70600  Biso   1.000  He
  Ne118    1.0000 0.40834  0.11413  0.68528  Biso   1.000  Ne
  Ne119    1.0000 0.92926  0.74985  0.83566  Biso   1.000  Ne
  He119    1.0000 0.90914  0.72510  0.84730  Biso   1.000  He
  He120    1.0000 0.92440  0.71161  0.87426  Biso   1.000  He
  Ne120    1.0000 0.90571  0.68349  0.88737  Biso   1.000  Ne
  Ne121    1.0000 0.69778  0.16326  0.58280  Biso   1.000  Ne
  He121    1.0000 0.70082  0.18574  0.56313  Biso   1.000  He
  He122    1.0000 0.67780  0.21296  0.56378  Biso   1.000  He
  Ne122    1.0000 0.68897  0.24193  0.55085  Biso   1.000  Ne
  Ne123    1.0000 0.58574  0.64451  0.14098  Biso   1.000  Ne
  He123    1.0000 0.59028  0.61050  0.14241  Biso   1.000  He
  He124    1.0000 0.60811  0.59461  0.11699  Biso   1.000  He
  Ne124    1.0000 0.60668  0.56217  0.11854  Biso   1.000  Ne
  Ne125    1.0000 0.47537  0.38420  0.02669  Biso   1.000  Ne
  He125    1.0000 0.49065  0.41328  0.01071  Biso   1.000  He
  He126    1.0000 0.52280  0.40979  0.99905  Biso   1.000  He
  Ne126    1.0000 0.52724  0.40815  0.96593  Biso   1.000  Ne
  Ne127    1.0000 0.44092  0.08211  0.29477  Biso   1.000  Ne
  He127    1.0000 0.43645  0.05737  0.31827  Biso   1.000  He
  He128    1.0000 0.44080  0.06851  0.35008  Biso   1.000  He
  Ne128    1.0000 0.42853  0.04732  0.37305  Biso   1.000  Ne
  Ne129    1.0000 0.10570  0.69030  0.35853  Biso   1.000  Ne
  He129    1.0000 0.11585  0.66755  0.38039  Biso   1.000  He
  He130    1.0000 0.09089  0.66149  0.40074  Biso   1.000  He
  Ne130    1.0000 0.10064  0.64224  0.42737  Biso   1.000  Ne
  Ne131    1.0000 0.15228  0.55839  0.44217  Biso   1.000  Ne
  He131    1.0000 0.17001  0.57996  0.42431  Biso   1.000  He
  He132    1.0000 0.17696  0.56864  0.39237  Biso   1.000  He
  Ne132    1.0000 0.18898  0.59349  0.36940  Biso   1.000  Ne
  Ne133    1.0000 0.85198  0.40646  0.34076  Biso   1.000  Ne
  He133    1.0000 0.87078  0.38693  0.32177  Biso   1.000  He
  He134    1.0000 0.87680  0.35453  0.33502  Biso   1.000  He
  Ne134    1.0000 0.89675  0.33251  0.31724  Biso   1.000  Ne
  Ne135    1.0000 0.11016  0.39371  0.34855  Biso   1.000  Ne
  He135    1.0000 0.13878  0.40730  0.33541  Biso   1.000  He
  He136    1.0000 0.16122  0.38448  0.33004  Biso   1.000  He
  Ne136    1.0000 0.19086  0.39860  0.32388  Biso   1.000  Ne
  Ne137    1.0000 0.11636  0.37633  0.74281  Biso   1.000  Ne
  He137    1.0000 0.10694  0.40081  0.72422  Biso   1.000  He
  He138    1.0000 0.10995  0.39578  0.69092  Biso   1.000  He
  Ne138    1.0000 0.09822  0.42318  0.67166  Biso   1.000  Ne
  Ne139    1.0000 0.18062  0.57637  0.61642  Biso   1.000  Ne
  He139    1.0000 0.20091  0.57401  0.58991  Biso   1.000  He
  He140    1.0000 0.23335  0.57236  0.59805  Biso   1.000  He
  Ne140    1.0000 0.25006  0.56932  0.57191  Biso   1.000  Ne
  Ne141    1.0000 0.91519  0.71241  0.41415  Biso   1.000  Ne
  He141    1.0000 0.89681  0.68736  0.42633  Biso   1.000  He
  He142    1.0000 0.86390  0.68843  0.42181  Biso   1.000  He
  Ne142    1.0000 0.84803  0.66618  0.43720  Biso   1.000  Ne
  Ne143    1.0000 0.68359  0.71625  0.42404  Biso   1.000  Ne
  He143    1.0000 0.65048  0.70820  0.43194  Biso   1.000  He
  He144    1.0000 0.64120  0.68022  0.41458  Biso   1.000  He
  Ne144    1.0000 0.60799  0.67228  0.42179  Biso   1.000  Ne
  Ne145    1.0000 0.60682  0.17926  0.58583  Biso   1.000  Ne
  He145    1.0000 0.59739  0.14866  0.59039  Biso   1.000  He
  He146    1.0000 0.59708  0.13591  0.62105  Biso   1.000  He
  Ne146    1.0000 0.59014  0.10171  0.62648  Biso   1.000  Ne
  Ne147    1.0000 0.61819  0.10112  0.36680  Biso   1.000  Ne
  He147    1.0000 0.60148  0.07440  0.37915  Biso   1.000  He
  He148    1.0000 0.61101  0.06749  0.41252  Biso   1.000  He
  Ne148    1.0000 0.58995  0.04759  0.42792  Biso   1.000  Ne
  Ne149    1.0000 0.08864  0.62579  0.59664  Biso   1.000  Ne
  He149    1.0000 0.08374  0.62511  0.62922  Biso   1.000  He
  He150    1.0000 0.10307  0.60440  0.64551  Biso   1.000  He
  Ne150    1.0000 0.08996  0.57325  0.65418  Biso   1.000  Ne
  Ne151    1.0000 0.88019  0.31037  0.57992  Biso   1.000  Ne
  He151    1.0000 0.91188  0.30559  0.58236  Biso   1.000  He
  He152    1.0000 0.91885  0.30834  0.61582  Biso   1.000  He
  Ne152    1.0000 0.94948  0.29473  0.62473  Biso   1.000  Ne
  Ne153    1.0000 0.45639  0.46467  0.94644  Biso   1.000  Ne
  He153    1.0000 0.44335  0.48779  0.96233  Biso   1.000  He
  He154    1.0000 0.46024  0.49537  0.99191  Biso   1.000  He
  Ne154    1.0000 0.44407  0.51682  0.01216  Biso   1.000  Ne
  Ne155    1.0000 0.09063  0.83595  0.17595  Biso   1.000  Ne
  He155    1.0000 0.10524  0.86457  0.17467  Biso   1.000  He
  He156    1.0000 0.10763  0.87808  0.14601  Biso   1.000  He
  Ne156    1.0000 0.12494  0.90981  0.14415  Biso   1.000  Ne
  Ne157    1.0000 0.37675  0.13538  0.41729  Biso   1.000  Ne
  He157    1.0000 0.40146  0.15040  0.40261  Biso   1.000  He
  He158    1.0000 0.42742  0.15840  0.42152  Biso   1.000  He
  Ne158    1.0000 0.45256  0.17205  0.40517  Biso   1.000  Ne
  Ne159    1.0000 0.13103  0.07168  0.15191  Biso   1.000  Ne
  He159    1.0000 0.11364  0.08437  0.12646  Biso   1.000  He
  He160    1.0000 0.10898  0.11567  0.12717  Biso   1.000  He
  Ne160    1.0000 0.09690  0.12394  0.09729  Biso   1.000  Ne
  Ne161    1.0000 0.58001  0.88343  0.66313  Biso   1.000  Ne
  He161    1.0000 0.57379  0.85466  0.64630  Biso   1.000  He
  He162    1.0000 0.58997  0.82889  0.65539  Biso   1.000  He
  Ne162    1.0000 0.58177  0.80266  0.63577  Biso   1.000  Ne
  Ne163    1.0000 0.92224  0.06347  0.89421  Biso   1.000  Ne
  He163    1.0000 0.93912  0.04981  0.92099  Biso   1.000  He
  He164    1.0000 0.93306  0.06407  0.95057  Biso   1.000  He
  Ne164    1.0000 0.95221  0.05201  0.97634  Biso   1.000  Ne
  Ne165    1.0000 0.97205  0.44405  0.22573  Biso   1.000  Ne
  He165    1.0000 0.97660  0.42298  0.25098  Biso   1.000  He
  He166    1.0000 0.95343  0.42463  0.27424  Biso   1.000  He
  Ne166    1.0000 0.95486  0.39710  0.29375  Biso   1.000  Ne
  Ne167    1.0000 0.30867  0.31052  0.06748  Biso   1.000  Ne
  He167    1.0000 0.29777  0.33962  0.06539  Biso   1.000  He
  He168    1.0000 0.31963  0.36194  0.07713  Biso   1.000  He
  Ne168    1.0000 0.30821  0.39085  0.08529  Biso   1.000  Ne
  Ne169    1.0000 0.91500  0.57570  0.65967  Biso   1.000  Ne
  He169    1.0000 0.89698  0.57399  0.68746  Biso   1.000  He
  He170    1.0000 0.86332  0.58127  0.68290  Biso   1.000  He
  Ne170    1.0000 0.84646  0.57721  0.71201  Biso   1.000  Ne
  Ne171    1.0000 0.34665  0.15759  0.59357  Biso   1.000  Ne
  He171    1.0000 0.36226  0.12792  0.60413  Biso   1.000  He
  He172    1.0000 0.39471  0.12206  0.59516  Biso   1.000  He
  Ne172    1.0000 0.39636  0.09833  0.57179  Biso   1.000  Ne
  Ne173    1.0000 0.37391  0.39634  0.93287  Biso   1.000  Ne
  He173    1.0000 0.35354  0.37966  0.91306  Biso   1.000  He
  He174    1.0000 0.36255  0.37954  0.88079  Biso   1.000  He
  Ne174    1.0000 0.34560  0.35441  0.86574  Biso   1.000  Ne
  Ne175    1.0000 0.66179  0.14666  0.74489  Biso   1.000  Ne
  He175    1.0000 0.67399  0.16930  0.76599  Biso   1.000  He
  He176    1.0000 0.66849  0.16748  0.79889  Biso   1.000  He
  Ne176    1.0000 0.68813  0.14750  0.81725  Biso   1.000  Ne
  Ne177    1.0000 0.05002  0.06826  0.03499  Biso   1.000  Ne
  He177    1.0000 0.02965  0.05282  0.05917  Biso   1.000  He
  He178    1.0000 0.04862  0.03789  0.08196  Biso   1.000  He
  Ne178    1.0000 0.03226  0.02139  0.10337  Biso   1.000  Ne
  Ne179    1.0000 0.66567  0.29947  0.89868  Biso   1.000  Ne
  He179    1.0000 0.68581  0.32101  0.91719  Biso   1.000  He
  He180    1.0000 0.71193  0.33730  0.90164  Biso   1.000  He
  Ne180    1.0000 0.73272  0.35506  0.92066  Biso   1.000  Ne
  Ne181    1.0000 0.64459  0.87692  0.61350  Biso   1.000  Ne
  He181    1.0000 0.66534  0.89242  0.63271  Biso   1.000  He
  He182    1.0000 0.69643  0.87866  0.63133  Biso   1.000  He
  Ne182    1.0000 0.72200  0.89005  0.65435  Biso   1.000  Ne
  Ne183    1.0000 0.08719  0.55603  0.36179  Biso   1.000  Ne
  He183    1.0000 0.11081  0.57185  0.34452  Biso   1.000  He
  He184    1.0000 0.10318  0.57779  0.31441  Biso   1.000  He
  Ne184    1.0000 0.12466  0.59797  0.29649  Biso   1.000  Ne
  Ne185    1.0000 0.83647  0.70216  0.98023  Biso   1.000  Ne
  He185    1.0000 0.86714  0.70374  0.96972  Biso   1.000  He
  He186    1.0000 0.88909  0.68940  0.99171  Biso   1.000  He
  Ne186    1.0000 0.92098  0.68730  0.98331  Biso   1.000  Ne
  Ne187    1.0000 0.02384  0.43225  0.54483  Biso   1.000  Ne
  He187    1.0000 0.05519  0.44250  0.54921  Biso   1.000  He
  He188    1.0000 0.06824  0.43410  0.57964  Biso   1.000  He
  Ne188    1.0000 0.09850  0.44546  0.58620  Biso   1.000  Ne
  Ne189    1.0000 0.92211  0.64560  0.59961  Biso   1.000  Ne
  He189    1.0000 0.89042  0.63377  0.59430  Biso   1.000  He
  He190    1.0000 0.86845  0.64869  0.61191  Biso   1.000  He
  Ne190    1.0000 0.83913  0.63537  0.61632  Biso   1.000  Ne
  Ne191    1.0000 0.10097  0.34875  0.62827  Biso   1.000  Ne
  He191    1.0000 0.10605  0.32973  0.60102  Biso   1.000  He
  He192    1.0000 0.11602  0.29872  0.60713  Biso   1.000  He
  Ne192    1.0000 0.12368  0.27488  0.58232  Biso   1.000  Ne
  Ne193    1.0000 0.54168  0.91916  0.45573  Biso   1.000  Ne
  He193    1.0000 0.57408  0.91372  0.45790  Biso   1.000  He
  He194    1.0000 0.58686  0.90467  0.43047  Biso   1.000  He
  Ne194    1.0000 0.61833  0.89814  0.43405  Biso   1.000  Ne
  Ne195    1.0000 0.71504  0.19701  0.94659  Biso   1.000  Ne
  He195    1.0000 0.73735  0.21746  0.93588  Biso   1.000  He
  He196    1.0000 0.72557  0.24936  0.92834  Biso   1.000  He
  Ne196    1.0000 0.74635  0.27167  0.91951  Biso   1.000  Ne
  Ne197    1.0000 0.45227  0.89001  0.34224  Biso   1.000  Ne
  He197    1.0000 0.43757  0.86565  0.32524  Biso   1.000  He
  He198    1.0000 0.40994  0.85618  0.33777  Biso   1.000  He
  Ne198    1.0000 0.39559  0.83077  0.32515  Biso   1.000  Ne
  Ne199    1.0000 0.54761  0.32731  0.28738  Biso   1.000  Ne
  He199    1.0000 0.54968  0.29652  0.29090  Biso   1.000  He
  He200    1.0000 0.55454  0.28849  0.32466  Biso   1.000  He
  Ne200    1.0000 0.55665  0.25693  0.33179  Biso   1.000  Ne
  Ne201    1.0000 0.60081  0.32491  0.21923  Biso   1.000  Ne
  He201    1.0000 0.60064  0.29150  0.22061  Biso   1.000  He
  He202    1.0000 0.62684  0.27931  0.20692  Biso   1.000  He
  Ne202    1.0000 0.62753  0.24279  0.21021  Biso   1.000  Ne
  Ne203    1.0000 0.08041  0.93746  0.04570  Biso   1.000  Ne
  He203    1.0000 0.08895  0.96500  0.03154  Biso   1.000  He
  He204    1.0000 0.10682  0.98722  0.04741  Biso   1.000  He
  Ne204    1.0000 0.11394  0.01056  0.02625  Biso   1.000  Ne
  Ne205    1.0000 0.26526  0.66706  0.42895  Biso   1.000  Ne
  He205    1.0000 0.28963  0.64359  0.43063  Biso   1.000  He
  He206    1.0000 0.28155  0.61541  0.44188  Biso   1.000  He
  Ne206    1.0000 0.30686  0.59393  0.44664  Biso   1.000  Ne
  Ne207    1.0000 0.09560  0.76852  0.32939  Biso   1.000  Ne
  He207    1.0000 0.07588  0.77721  0.35646  Biso   1.000  He
  He208    1.0000 0.08853  0.80428  0.37121  Biso   1.000  He
  Ne208    1.0000 0.07078  0.81247  0.39841  Biso   1.000  Ne
  Ne209    1.0000 0.63377  0.05771  0.30249  Biso   1.000  Ne
  He209    1.0000 0.60546  0.06140  0.28301  Biso   1.000  He
  He210    1.0000 0.60786  0.07878  0.25515  Biso   1.000  He
  Ne210    1.0000 0.57677  0.08293  0.23706  Biso   1.000  Ne
  Ne211    1.0000 0.17465  0.04866  0.07256  Biso   1.000  Ne
  He211    1.0000 0.18599  0.06824  0.09646  Biso   1.000  He
  He212    1.0000 0.20400  0.09340  0.08603  Biso   1.000  He
  Ne212    1.0000 0.18732  0.12117  0.07879  Biso   1.000  Ne
  Ne213    1.0000 0.39383  0.31230  0.08551  Biso   1.000  Ne
  He213    1.0000 0.39760  0.34374  0.07348  Biso   1.000  He
  He214    1.0000 0.40815  0.36738  0.09236  Biso   1.000  He
  Ne214    1.0000 0.40311  0.39533  0.07620  Biso   1.000  Ne
  Ne215    1.0000 0.75872  0.91970  0.83325  Biso   1.000  Ne
  He215    1.0000 0.73359  0.93044  0.84937  Biso   1.000  He
  He216    1.0000 0.71668  0.95183  0.83046  Biso   1.000  He
  Ne216    1.0000 0.68795  0.96326  0.84776  Biso   1.000  Ne
  Ne217    1.0000 0.79568  0.23802  0.35240  Biso   1.000  Ne
  He217    1.0000 0.80418  0.25549  0.38014  Biso   1.000  He
  He218    1.0000 0.83520  0.24629  0.39146  Biso   1.000  He
  Ne218    1.0000 0.85303  0.27092  0.40551  Biso   1.000  Ne
  Ne219    1.0000 0.84275  0.13769  0.18343  Biso   1.000  Ne
  He219    1.0000 0.85025  0.12476  0.21443  Biso   1.000  He
  He220    1.0000 0.87074  0.14297  0.23124  Biso   1.000  He
  Ne220    1.0000 0.87547  0.13152  0.25967  Biso   1.000  Ne
  Ne221    1.0000 0.91831  0.20356  0.07609  Biso   1.000  Ne
  He221    1.0000 0.91980  0.20597  0.10878  Biso   1.000  He
  He222    1.0000 0.92100  0.17640  0.12576  Biso   1.000  He
  Ne222    1.0000 0.91661  0.18110  0.15719  Biso   1.000  Ne
  Ne223    1.0000 0.82057  0.05845  0.13503  Biso   1.000  Ne
  He223    1.0000 0.79746  0.07901  0.14532  Biso   1.000  He
  He224    1.0000 0.78079  0.07239  0.17447  Biso   1.000  He
  Ne224    1.0000 0.74898  0.08383  0.17135  Biso   1.000  Ne
  Ne225    1.0000 0.92092  0.40712  0.67075  Biso   1.000  Ne
  He225    1.0000 0.91784  0.37171  0.67717  Biso   1.000  He
  He226    1.0000 0.94152  0.35901  0.69627  Biso   1.000  He
  Ne226    1.0000 0.93907  0.32658  0.70264  Biso   1.000  Ne
  Ne227    1.0000 0.19233  0.85606  0.92075  Biso   1.000  Ne
  He227    1.0000 0.20813  0.87182  0.89696  Biso   1.000  He
  He228    1.0000 0.24061  0.87049  0.90057  Biso   1.000  He
  Ne228    1.0000 0.25494  0.88902  0.87800  Biso   1.000  Ne
  Ne229    1.0000 0.88924  0.90305  0.83951  Biso   1.000  Ne
  He229    1.0000 0.85823  0.90262  0.85267  Biso   1.000  He
  He230    1.0000 0.85925  0.90296  0.88534  Biso   1.000  He
  Ne230    1.0000 0.83171  0.90086  0.90142  Biso   1.000  Ne
  Ne231    1.0000 0.94895  0.61876  0.33007  Biso   1.000  Ne
  He231    1.0000 0.94512  0.59209  0.31272  Biso   1.000  He
  He232    1.0000 0.92500  0.59536  0.28599  Biso   1.000  He
  Ne232    1.0000 0.91904  0.56919  0.26854  Biso   1.000  Ne
  Ne233    1.0000 0.59297  0.66511  0.27788  Biso   1.000  Ne
  He233    1.0000 0.61669  0.65790  0.29775  Biso   1.000  He
  He234    1.0000 0.63751  0.68257  0.30840  Biso   1.000  He
  Ne234    1.0000 0.66021  0.67503  0.33064  Biso   1.000  Ne
  Ne235    1.0000 0.79670  0.56176  0.60047  Biso   1.000  Ne
  He235    1.0000 0.77720  0.54378  0.61895  Biso   1.000  He
  He236    1.0000 0.74698  0.53588  0.60196  Biso   1.000  He
  Ne236    1.0000 0.72596  0.51834  0.62016  Biso   1.000  Ne
  Ne237    1.0000 0.45445  0.98064  0.53638  Biso   1.000  Ne
  He237    1.0000 0.45892  0.99973  0.56290  Biso   1.000  He
  He238    1.0000 0.48080  0.02394  0.55939  Biso   1.000  He
  Ne238    1.0000 0.48063  0.04439  0.58224  Biso   1.000  Ne
  Ne239    1.0000 0.34910  0.64621  0.93551  Biso   1.000  Ne
  He239    1.0000 0.38305  0.64937  0.93732  Biso   1.000  He
  He240    1.0000 0.40011  0.64143  0.90921  Biso   1.000  He
  Ne240    1.0000 0.42851  0.65272  0.90959  Biso   1.000  Ne
  Ne241    1.0000 0.29787  0.83887  0.59354  Biso   1.000  Ne
  He241    1.0000 0.32401  0.82113  0.58142  Biso   1.000  He
  He242    1.0000 0.34280  0.80960  0.60293  Biso   1.000  He
  Ne242    1.0000 0.37119  0.79452  0.59476  Biso   1.000  Ne
  Ne243    1.0000 0.18471  0.36133  0.41386  Biso   1.000  Ne
  He243    1.0000 0.21019  0.37620  0.42313  Biso   1.000  He
  He244    1.0000 0.21165  0.40783  0.41084  Biso   1.000  He
  Ne244    1.0000 0.24265  0.42270  0.41975  Biso   1.000  Ne
  Ne245    1.0000 0.96624  0.40070  0.57173  Biso   1.000  Ne
  He245    1.0000 0.94091  0.38580  0.58681  Biso   1.000  He
  He246    1.0000 0.91153  0.39914  0.57753  Biso   1.000  He
  Ne246    1.0000 0.88434  0.38339  0.58984  Biso   1.000  Ne
  Ne247    1.0000 0.46325  0.57811  0.96226  Biso   1.000  Ne
  He247    1.0000 0.43057  0.58058  0.95896  Biso   1.000  He
  He248    1.0000 0.41632  0.55596  0.93741  Biso   1.000  He
  Ne248    1.0000 0.38301  0.55285  0.93321  Biso   1.000  Ne
  Ne249    1.0000 0.21151  0.85518  0.08211  Biso   1.000  Ne
  He249    1.0000 0.20680  0.82428  0.09113  Biso   1.000  He
  He250    1.0000 0.23092  0.81162  0.11151  Biso   1.000  He
  Ne250    1.0000 0.21706  0.78718  0.13118  Biso   1.000  Ne
  Ne251    1.0000 0.94744  0.07601  0.24802  Biso   1.000  Ne
  He251    1.0000 0.93604  0.09025  0.22172  Biso   1.000  He
  He252    1.0000 0.93709  0.06943  0.19786  Biso   1.000  He
  Ne252    1.0000 0.92004  0.08339  0.17287  Biso   1.000  Ne
  Ne253    1.0000 0.91125  0.81495  0.10363  Biso   1.000  Ne
  He253    1.0000 0.92128  0.78801  0.12608  Biso   1.000  He
  He254    1.0000 0.92605  0.76098  0.10923  Biso   1.000  He
  Ne254    1.0000 0.93461  0.73761  0.12826  Biso   1.000  Ne
  Ne255    1.0000 0.17741  0.40195  0.58259  Biso   1.000  Ne
  He255    1.0000 0.20877  0.40320  0.58929  Biso   1.000  He
  He256    1.0000 0.21668  0.40719  0.62106  Biso   1.000  He
  Ne256    1.0000 0.24955  0.40806  0.62654  Biso   1.000  Ne
  Ne257    1.0000 0.03132  0.03627  0.96226  Biso   1.000  Ne
  He257    1.0000 0.04742  0.06398  0.94721  Biso   1.000  He
  He258    1.0000 0.08014  0.06770  0.95701  Biso   1.000  He
  Ne258    1.0000 0.09345  0.09525  0.94822  Biso   1.000  Ne
  Ne259    1.0000 0.09875  0.84660  0.07445  Biso   1.000  Ne
  He259    1.0000 0.12137  0.82452  0.08691  Biso   1.000  He
  He260    1.0000 0.10377  0.80178  0.10488  Biso   1.000  He
  Ne260    1.0000 0.12052  0.77464  0.11514  Biso   1.000  Ne
  Ne261    1.0000 0.76575  0.03759  0.70460  Biso   1.000  Ne
  He261    1.0000 0.74306  0.05992  0.71301  Biso   1.000  He
  He262    1.0000 0.72220  0.06439  0.68935  Biso   1.000  He
  Ne262    1.0000 0.69494  0.08215  0.69774  Biso   1.000  Ne
  Ne263    1.0000 0.12994  0.69132  0.25367  Biso   1.000  Ne
  He263    1.0000 0.10834  0.69281  0.23040  Biso   1.000  He
  He264    1.0000 0.09568  0.72506  0.22604  Biso   1.000  He
  Ne264    1.0000 0.08383  0.73076  0.19711  Biso   1.000  Ne
  Ne265    1.0000 0.43073  0.27780  0.53208  Biso   1.000  Ne
  He265    1.0000 0.40359  0.27550  0.54825  Biso   1.000  He
  He266    1.0000 0.40655  0.27586  0.58175  Biso   1.000  He
  Ne266    1.0000 0.37841  0.27604  0.59723  Biso   1.000  Ne
  Ne267    1.0000 0.07907  0.88998  0.79852  Biso   1.000  Ne
  He267    1.0000 0.10895  0.89949  0.81159  Biso   1.000  He
  He268    1.0000 0.12463  0.87291  0.82346  Biso   1.000  He
  Ne268    1.0000 0.15444  0.88187  0.83530  Biso   1.000  Ne
  Ne269    1.0000 0.88405  0.80122  0.91681  Biso   1.000  Ne
  He269    1.0000 0.91264  0.81834  0.92119  Biso   1.000  He
  He270    1.0000 0.91366  0.84546  0.90052  Biso   1.000  He
  Ne270    1.0000 0.93699  0.86765  0.90486  Biso   1.000  Ne
  Ne271    1.0000 0.23689  0.17921  0.54110  Biso   1.000  Ne
  He271    1.0000 0.20636  0.17948  0.53720  Biso   1.000  He
  He272    1.0000 0.18971  0.20438  0.55272  Biso   1.000  He
  Ne272    1.0000 0.15703  0.20595  0.54364  Biso   1.000  Ne
  Ne273    1.0000 0.08572  0.19418  0.34083  Biso   1.000  Ne
  He273    1.0000 0.10839  0.19667  0.32072  Biso   1.000  He
  He274    1.0000 0.11413  0.16971  0.30618  Biso   1.000  He
  Ne274    1.0000 0.13828  0.17280  0.28464  Biso   1.000  Ne
  Ne275    1.0000 0.44255  0.23473  0.91623  Biso   1.000  Ne
  He275    1.0000 0.42744  0.26339  0.91943  Biso   1.000  He
  He276    1.0000 0.39551  0.26455  0.90949  Biso   1.000  He
  Ne276    1.0000 0.37818  0.29160  0.91265  Biso   1.000  Ne
  Ne277    1.0000 0.10802  0.34938  0.42766  Biso   1.000  Ne
  He277    1.0000 0.08888  0.37411  0.43262  Biso   1.000  He
  He278    1.0000 0.10123  0.39511  0.45763  Biso   1.000  He
  Ne278    1.0000 0.08587  0.42279  0.46379  Biso   1.000  Ne
  Ne279    1.0000 0.65055  0.62634  0.72450  Biso   1.000  Ne
  He279    1.0000 0.61981  0.61378  0.73150  Biso   1.000  He
  He280    1.0000 0.61084  0.61087  0.76366  Biso   1.000  He
  Ne280    1.0000 0.57817  0.60068  0.76835  Biso   1.000  Ne
