data_image0
_cell_length_a       46.8939
_cell_length_b       46.6906
_cell_length_c       46.6249
_cell_angle_alpha    90
_cell_angle_beta     90
_cell_angle_gamma    90

_symmetry_space_group_name_H-M    "P 1"
_symmetry_int_tables_number       1

loop_
  _symmetry_equiv_pos_as_xyz
  'x, y, z'

loop_
  _atom_site_label
  _atom_site_occupancy
  _atom_site_fract_x
  _atom_site_fract_y
  _atom_site_fract_z
  _atom_site_thermal_displace_type
  _atom_site_B_iso_or_equiv
  _atom_site_type_symbol
  Ne1      1.0000 0.67984  0.89522  0.36214  Biso   1.000  Ne
  He1      1.0000 0.69479  0.90769  0.39038  Biso   1.000  He
  He2      1.0000 0.72820  0.91307  0.38601  Biso   1.000  He
  Ne2      1.0000 0.74668  0.92204  0.41084  Biso   1.000  Ne
  Ne3      1.0000 0.74928  0.35873  0.12030  Biso   1.000  Ne
  He3      1.0000 0.75106  0.32649  0.11569  Biso   1.000  He
  He4      1.0000 0.74250  0.30833  0.13977  Biso   1.000  He
  Ne4      1.0000 0.74169  0.27720  0.13413  Biso   1.000  Ne
  Ne5      1.0000 0.65384  0.63960  0.13309  Biso   1.000  Ne
  He5      1.0000 0.62275  0.64484  0.12768  Biso   1.000  He
  He6      1.0000 0.61735  0.67473  0.11775  Biso   1.000  He
  Ne6      1.0000 0.58625  0.68289  0.11383  Biso   1.000  Ne
  Ne7      1.0000 0.58417  0.07554  0.30958  Biso   1.000  Ne
  He7      1.0000 0.58423  0.10151  0.33240  Biso   1.000  He
  He8      1.0000 0.61246  0.10933  0.34282  Biso   1.000  He
  Ne8      1.0000 0.61050  0.13777  0.36457  Biso   1.000  Ne
  Ne9      1.0000 0.09369  0.43075  0.53671  Biso   1.000  Ne
  He9      1.0000 0.07932  0.43586  0.50683  Biso   1.000  He
  He10     1.0000 0.04583  0.44051  0.50842  Biso   1.000  He
  Ne10     1.0000 0.03064  0.43511  0.47854  Biso   1.000  Ne
  Ne11     1.0000 0.64136  0.61687  0.21181  Biso   1.000  Ne
  He11     1.0000 0.66981  0.60938  0.21912  Biso   1.000  He
  He12     1.0000 0.67343  0.57773  0.22307  Biso   1.000  He
  Ne12     1.0000 0.70287  0.57542  0.23738  Biso   1.000  Ne
  Ne13     1.0000 0.12735  0.23951  0.11982  Biso   1.000  Ne
  He13     1.0000 0.12141  0.20559  0.11779  Biso   1.000  He
  He14     1.0000 0.13628  0.18673  0.09771  Biso   1.000  He
  Ne14     1.0000 0.12674  0.15554  0.10035  Biso   1.000  Ne
  Ne15     1.0000 0.83139  0.06869  0.10092  Biso   1.000  Ne
  He15     1.0000 0.86579  0.07485  0.10301  Biso   1.000  He
  He16     1.0000 0.88413  0.05912  0.08159  Biso   1.000  He
  Ne16     1.0000 0.91569  0.06014  0.08371  Biso   1.000  Ne
  Ne17     1.0000 0.43287  0.85547  0.73217  Biso   1.000  Ne
  He17     1.0000 0.42327  0.86389  0.69953  Biso   1.000  He
  He18     1.0000 0.44145  0.88831  0.68850  Biso   1.000  He
  Ne18     1.0000 0.43530  0.89287  0.65643  Biso   1.000  Ne
  Ne19     1.0000 0.64683  0.91482  0.57337  Biso   1.000  Ne
  He19     1.0000 0.61879  0.93276  0.57242  Biso   1.000  He
  He20     1.0000 0.60086  0.93156  0.59903  Biso   1.000  He
  Ne20     1.0000 0.57162  0.94837  0.59612  Biso   1.000  Ne
  Ne21     1.0000 0.91427  0.56141  0.57634  Biso   1.000  Ne
  He21     1.0000 0.89007  0.55990  0.59786  Biso   1.000  He
  He22     1.0000 0.86690  0.57999  0.59144  Biso   1.000  He
  Ne22     1.0000 0.83550  0.57171  0.59750  Biso   1.000  Ne
  Ne23     1.0000 0.68123  0.31585  0.85796  Biso   1.000  Ne
  He23     1.0000 0.70357  0.33921  0.84617  Biso   1.000  He
  He24     1.0000 0.69564  0.35269  0.81685  Biso   1.000  He
  Ne24     1.0000 0.71554  0.37746  0.80482  Biso   1.000  Ne
  Ne25     1.0000 0.01033  0.52698  0.56311  Biso   1.000  Ne
  He25     1.0000 0.00594  0.49578  0.57285  Biso   1.000  He
  He26     1.0000 0.03243  0.48171  0.58249  Biso   1.000  He
  Ne26     1.0000 0.03189  0.44964  0.58579  Biso   1.000  Ne
  Ne27     1.0000 0.32287  0.08437  0.67872  Biso   1.000  Ne
  He27     1.0000 0.34096  0.07671  0.70510  Biso   1.000  He
  He28     1.0000 0.37374  0.06569  0.69592  Biso   1.000  He
  Ne28     1.0000 0.39390  0.06525  0.72135  Biso   1.000  Ne
  Ne29     1.0000 0.95241  0.36119  0.40594  Biso   1.000  Ne
  He29     1.0000 0.93865  0.33902  0.42596  Biso   1.000  He
  He30     1.0000 0.93905  0.30821  0.41032  Biso   1.000  He
  Ne30     1.0000 0.92559  0.28718  0.42641  Biso   1.000  Ne
  Ne31     1.0000 0.88939  0.22148  0.94662  Biso   1.000  Ne
  He31     1.0000 0.87076  0.19276  0.93518  Biso   1.000  He
  He32     1.0000 0.88170  0.18065  0.90516  Biso   1.000  He
  Ne32     1.0000 0.86839  0.15188  0.89640  Biso   1.000  Ne
  Ne33     1.0000 0.05038  0.96271  0.09268  Biso   1.000  Ne
  He33     1.0000 0.04833  0.94753  0.06281  Biso   1.000  He
  He34     1.0000 0.05939  0.91857  0.05880  Biso   1.000  He
  Ne34     1.0000 0.05817  0.90548  0.02916  Biso   1.000  Ne
  Ne35     1.0000 0.91780  0.88276  0.19537  Biso   1.000  Ne
  He35     1.0000 0.91145  0.89711  0.22534  Biso   1.000  He
  He36     1.0000 0.93942  0.90704  0.24201  Biso   1.000  He
  Ne36     1.0000 0.93316  0.91617  0.27376  Biso   1.000  Ne
  Ne37     1.0000 0.09176  0.09894  0.17863  Biso   1.000  Ne
  He37     1.0000 0.08461  0.07720  0.20326  Biso   1.000  He
  He38     1.0000 0.07770  0.09325  0.23318  Biso   1.000  He
  Ne38     1.0000 0.07360  0.07545  0.26023  Biso   1.000  Ne
  Ne39     1.0000 0.58794  0.28675  0.84887  Biso   1.000  Ne
  He39     1.0000 0.59049  0.31507  0.86689  Biso   1.000  He
  He40     1.0000 0.60351  0.30989  0.89714  Biso   1.000  He
  Ne40     1.0000 0.59376  0.33320  0.91795  Biso   1.000  Ne
  Ne41     1.0000 0.26339  0.89970  0.37917  Biso   1.000  Ne
  He41     1.0000 0.27663  0.88915  0.35067  Biso   1.000  He
  He42     1.0000 0.30732  0.90219  0.34357  Biso   1.000  He
  Ne42     1.0000 0.31709  0.89487  0.31221  Biso   1.000  Ne
  Ne43     1.0000 0.38570  0.58154  0.12702  Biso   1.000  Ne
  He43     1.0000 0.40373  0.56778  0.14957  Biso   1.000  He
  He44     1.0000 0.43241  0.55597  0.13792  Biso   1.000  He
  Ne44     1.0000 0.45195  0.54602  0.16193  Biso   1.000  Ne
  Ne45     1.0000 0.58751  0.78784  0.39853  Biso   1.000  Ne
  He45     1.0000 0.61569  0.76828  0.40080  Biso   1.000  He
  He46     1.0000 0.60441  0.74158  0.41475  Biso   1.000  He
  Ne46     1.0000 0.62868  0.71829  0.41763  Biso   1.000  Ne
  Ne47     1.0000 0.65855  0.07910  0.41611  Biso   1.000  Ne
  He47     1.0000 0.62878  0.07702  0.42867  Biso   1.000  He
  He48     1.0000 0.60348  0.06462  0.40909  Biso   1.000  He
  Ne48     1.0000 0.57181  0.06373  0.42227  Biso   1.000  Ne
  Ne49     1.0000 0.09501  0.11453  0.89398  Biso   1.000  Ne
  He49     1.0000 0.11488  0.14222  0.89549  Biso   1.000  He
  He50     1.0000 0.14599  0.13435  0.90536  Biso   1.000  He
  Ne50     1.0000 0.17093  0.15726  0.90828  Biso   1.000  Ne
  Ne51     1.0000 0.80898  0.09310  0.86243  Biso   1.000  Ne
  He51     1.0000 0.81589  0.08780  0.89580  Biso   1.000  He
  He52     1.0000 0.84223  0.07131  0.90104  Biso   1.000  He
  Ne52     1.0000 0.84911  0.06174  0.93229  Biso   1.000  Ne
  Ne53     1.0000 0.10756  0.27439  0.60547  Biso   1.000  Ne
  He53     1.0000 0.13789  0.28955  0.60203  Biso   1.000  He
  He54     1.0000 0.15558  0.28794  0.63024  Biso   1.000  He
  Ne54     1.0000 0.18587  0.29817  0.62532  Biso   1.000  Ne
  Ne55     1.0000 0.93221  0.39606  0.71974  Biso   1.000  Ne
  He55     1.0000 0.92535  0.39817  0.68668  Biso   1.000  He
  He56     1.0000 0.94150  0.37247  0.67097  Biso   1.000  He
  Ne56     1.0000 0.93968  0.37032  0.63765  Biso   1.000  Ne
  Ne57     1.0000 0.34450  0.08515  0.43371  Biso   1.000  Ne
  He57     1.0000 0.36880  0.10828  0.43593  Biso   1.000  He
  He58     1.0000 0.36465  0.13458  0.41803  Biso   1.000  He
  Ne58     1.0000 0.38793  0.15674  0.42264  Biso   1.000  Ne
  Ne59     1.0000 0.86156  0.10230  0.76560  Biso   1.000  Ne
  He59     1.0000 0.85229  0.07691  0.74523  Biso   1.000  He
  He60     1.0000 0.86927  0.07287  0.71689  Biso   1.000  He
  Ne60     1.0000 0.85292  0.04960  0.69647  Biso   1.000  Ne
  Ne61     1.0000 0.86096  0.33253  0.69641  Biso   1.000  Ne
  He61     1.0000 0.85830  0.35572  0.67710  Biso   1.000  He
  He62     1.0000 0.82824  0.36523  0.67216  Biso   1.000  He
  Ne62     1.0000 0.82559  0.39024  0.64792  Biso   1.000  Ne
  Ne63     1.0000 0.84713  0.54016  0.73781  Biso   1.000  Ne
  He63     1.0000 0.83745  0.55299  0.70741  Biso   1.000  He
  He64     1.0000 0.84653  0.58486  0.70307  Biso   1.000  He
  Ne64     1.0000 0.83919  0.59354  0.67310  Biso   1.000  Ne
  Ne65     1.0000 0.43936  0.63337  0.94609  Biso   1.000  Ne
  He65     1.0000 0.42298  0.62056  0.91952  Biso   1.000  He
  He66     1.0000 0.44269  0.61466  0.89423  Biso   1.000  He
  Ne66     1.0000 0.42609  0.60188  0.86667  Biso   1.000  Ne
  Ne67     1.0000 0.86278  0.35446  0.57366  Biso   1.000  Ne
  He67     1.0000 0.85864  0.32114  0.57839  Biso   1.000  He
  He68     1.0000 0.83378  0.31111  0.59568  Biso   1.000  He
  Ne68     1.0000 0.82604  0.27940  0.58645  Biso   1.000  Ne
  Ne69     1.0000 0.43362  0.13306  0.35498  Biso   1.000  Ne
  He69     1.0000 0.41687  0.11002  0.33520  Biso   1.000  He
  He70     1.0000 0.42386  0.07975  0.34167  Biso   1.000  He
  Ne70     1.0000 0.40588  0.05676  0.33189  Biso   1.000  Ne
  Ne71     1.0000 0.93668  0.97220  0.96304  Biso   1.000  Ne
  He71     1.0000 0.95219  0.98984  0.93952  Biso   1.000  He
  He72     1.0000 0.97781  0.01097  0.94642  Biso   1.000  He
  Ne72     1.0000 0.99325  0.02441  0.92233  Biso   1.000  Ne
  Ne73     1.0000 0.10081  0.55439  0.39667  Biso   1.000  Ne
  He73     1.0000 0.11261  0.58479  0.40720  Biso   1.000  He
  He74     1.0000 0.09181  0.60968  0.40237  Biso   1.000  He
  Ne74     1.0000 0.10954  0.63925  0.40787  Biso   1.000  Ne
  Ne75     1.0000 0.07949  0.06457  0.06537  Biso   1.000  Ne
  He75     1.0000 0.11104  0.06657  0.07415  Biso   1.000  He
  He76     1.0000 0.11705  0.06191  0.10701  Biso   1.000  He
  Ne76     1.0000 0.14812  0.07091  0.11678  Biso   1.000  Ne
  Ne77     1.0000 0.75553  0.89899  0.61280  Biso   1.000  Ne
  He77     1.0000 0.73007  0.88451  0.59727  Biso   1.000  He
  He78     1.0000 0.73631  0.87393  0.56649  Biso   1.000  He
  Ne78     1.0000 0.70855  0.85648  0.55507  Biso   1.000  Ne
  Ne79     1.0000 0.24327  0.09646  0.71384  Biso   1.000  Ne
  He79     1.0000 0.23491  0.09274  0.74242  Biso   1.000  He
  He80     1.0000 0.26112  0.08915  0.76195  Biso   1.000  He
  Ne80     1.0000 0.25212  0.08356  0.79314  Biso   1.000  Ne
  Ne81     1.0000 0.57191  0.59235  0.06936  Biso   1.000  Ne
  He81     1.0000 0.60356  0.57980  0.06313  Biso   1.000  He
  He82     1.0000 0.61891  0.56891  0.09052  Biso   1.000  He
  Ne82     1.0000 0.65207  0.55895  0.08560  Biso   1.000  Ne
  Ne83     1.0000 0.19648  0.66225  0.38583  Biso   1.000  Ne
  He83     1.0000 0.20772  0.63000  0.38822  Biso   1.000  He
  He84     1.0000 0.18803  0.61116  0.40671  Biso   1.000  He
  Ne84     1.0000 0.19771  0.58058  0.40777  Biso   1.000  Ne
  Ne85     1.0000 0.39352  0.31586  0.93260  Biso   1.000  Ne
  He85     1.0000 0.41034  0.28719  0.93696  Biso   1.000  He
  He86     1.0000 0.41544  0.26577  0.91143  Biso   1.000  He
  Ne86     1.0000 0.42895  0.23442  0.92293  Biso   1.000  Ne
  Ne87     1.0000 0.45654  0.90269  0.47406  Biso   1.000  Ne
  He87     1.0000 0.45777  0.89025  0.44227  Biso   1.000  He
  He88     1.0000 0.42855  0.87982  0.43036  Biso   1.000  He
  Ne88     1.0000 0.43112  0.86791  0.39742  Biso   1.000  Ne
  Ne89     1.0000 0.34301  0.75994  0.91930  Biso   1.000  Ne
  He89     1.0000 0.36775  0.73728  0.91883  Biso   1.000  He
  He90     1.0000 0.38743  0.74447  0.94390  Biso   1.000  He
  Ne90     1.0000 0.41186  0.72234  0.94772  Biso   1.000  Ne
  Ne91     1.0000 0.21020  0.90606  0.81774  Biso   1.000  Ne
  He91     1.0000 0.17764  0.90032  0.81345  Biso   1.000  He
  He92     1.0000 0.17162  0.88151  0.78658  Biso   1.000  He
  Ne92     1.0000 0.13903  0.87054  0.78555  Biso   1.000  Ne
  Ne93     1.0000 0.66927  0.59570  0.92750  Biso   1.000  Ne
  He93     1.0000 0.63979  0.61233  0.93402  Biso   1.000  He
  He94     1.0000 0.63886  0.64638  0.92836  Biso   1.000  He
  Ne94     1.0000 0.60984  0.66135  0.94094  Biso   1.000  Ne
  Ne95     1.0000 0.57070  0.42337  0.09414  Biso   1.000  Ne
  He95     1.0000 0.55473  0.40726  0.07102  Biso   1.000  He
  He96     1.0000 0.55112  0.42346  0.04339  Biso   1.000  He
  Ne96     1.0000 0.53382  0.40560  0.02182  Biso   1.000  Ne
  Ne97     1.0000 0.71052  0.06307  0.58930  Biso   1.000  Ne
  He97     1.0000 0.72146  0.08335  0.61398  Biso   1.000  He
  He98     1.0000 0.71254  0.07043  0.64402  Biso   1.000  He
  Ne98     1.0000 0.72192  0.08943  0.66998  Biso   1.000  Ne
  Ne99     1.0000 0.91594  0.43478  0.57964  Biso   1.000  Ne
  He99     1.0000 0.93185  0.40954  0.56238  Biso   1.000  He
  He100    1.0000 0.96412  0.41631  0.55660  Biso   1.000  He
  Ne100    1.0000 0.98379  0.39599  0.54029  Biso   1.000  Ne
  Ne101    1.0000 0.10156  0.62379  0.57775  Biso   1.000  Ne
  He101    1.0000 0.08044  0.59847  0.58513  Biso   1.000  He
  He102    1.0000 0.09777  0.57111  0.59042  Biso   1.000  He
  Ne102    1.0000 0.07747  0.54697  0.60050  Biso   1.000  Ne
  Ne103    1.0000 0.44859  0.28494  0.08844  Biso   1.000  Ne
  He103    1.0000 0.42500  0.30504  0.09566  Biso   1.000  He
  He104    1.0000 0.43835  0.33352  0.09683  Biso   1.000  He
  Ne104    1.0000 0.41730  0.35766  0.10336  Biso   1.000  Ne
  Ne105    1.0000 0.44091  0.27846  0.66582  Biso   1.000  Ne
  He105    1.0000 0.46530  0.28518  0.68749  Biso   1.000  He
  He106    1.0000 0.48272  0.31039  0.67834  Biso   1.000  He
  Ne106    1.0000 0.50879  0.31820  0.69988  Biso   1.000  Ne
  Ne107    1.0000 0.57971  0.20900  0.58013  Biso   1.000  Ne
  He107    1.0000 0.61080  0.19198  0.57553  Biso   1.000  He
  He108    1.0000 0.61025  0.15988  0.58128  Biso   1.000  He
  Ne108    1.0000 0.63752  0.14497  0.57466  Biso   1.000  Ne
  Ne109    1.0000 0.12621  0.07047  0.80797  Biso   1.000  Ne
  He109    1.0000 0.11615  0.10018  0.82251  Biso   1.000  He
  He110    1.0000 0.13303  0.12538  0.80647  Biso   1.000  He
  Ne110    1.0000 0.12807  0.15616  0.81317  Biso   1.000  Ne
  Ne111    1.0000 0.59862  0.40925  0.85609  Biso   1.000  Ne
  He111    1.0000 0.63115  0.40495  0.85768  Biso   1.000  He
  He112    1.0000 0.64385  0.41362  0.89070  Biso   1.000  He
  Ne112    1.0000 0.66710  0.39207  0.90122  Biso   1.000  Ne
  Ne113    1.0000 0.37267  0.38791  0.93712  Biso   1.000  Ne
  He113    1.0000 0.34319  0.37824  0.92051  Biso   1.000  He
  He114    1.0000 0.34448  0.38713  0.88917  Biso   1.000  He
  Ne114    1.0000 0.31617  0.38570  0.87095  Biso   1.000  Ne
  Ne115    1.0000 0.36366  0.20876  0.16145  Biso   1.000  Ne
  He115    1.0000 0.38445  0.23335  0.17719  Biso   1.000  He
  He116    1.0000 0.40660  0.24957  0.15588  Biso   1.000  He
  Ne116    1.0000 0.43009  0.26933  0.17160  Biso   1.000  Ne
  Ne117    1.0000 0.09720  0.37189  0.60592  Biso   1.000  Ne
  He117    1.0000 0.10958  0.35977  0.63867  Biso   1.000  He
  He118    1.0000 0.13916  0.37503  0.64845  Biso   1.000  He
  Ne118    1.0000 0.14425  0.36984  0.67857  Biso   1.000  Ne
  Ne119    1.0000 0.87192  0.57757  0.42163  Biso   1.000  Ne
  He119    1.0000 0.89890  0.56441  0.43817  Biso   1.000  He
  He120    1.0000 0.92873  0.57301  0.42430  Biso   1.000  He
  Ne120    1.0000 0.95277  0.56330  0.43977  Biso   1.000  Ne
  Ne121    1.0000 0.07696  0.00488  0.99297  Biso   1.000  Ne
  He121    1.0000 0.09536  0.00947  0.96589  Biso   1.000  He
  He122    1.0000 0.10709  0.03989  0.96184  Biso   1.000  He
  Ne122    1.0000 0.12204  0.04347  0.93216  Biso   1.000  Ne
  Ne123    1.0000 0.75229  0.41257  0.20059  Biso   1.000  Ne
  He123    1.0000 0.76698  0.40280  0.22836  Biso   1.000  He
  He124    1.0000 0.79785  0.41170  0.23544  Biso   1.000  He
  Ne124    1.0000 0.81117  0.39755  0.26254  Biso   1.000  Ne
  Ne125    1.0000 0.48516  0.44148  0.09799  Biso   1.000  Ne
  He125    1.0000 0.48321  0.46941  0.08153  Biso   1.000  He
  He126    1.0000 0.50652  0.48860  0.08782  Biso   1.000  He
  Ne126    1.0000 0.50479  0.51787  0.06953  Biso   1.000  Ne
  Ne127    1.0000 0.44011  0.46225  0.00292  Biso   1.000  Ne
  He127    1.0000 0.47400  0.46751  0.99898  Biso   1.000  He
  He128    1.0000 0.49097  0.45063  0.97582  Biso   1.000  He
  Ne128    1.0000 0.48736  0.45980  0.94450  Biso   1.000  Ne
  Ne129    1.0000 0.94742  0.10977  0.85629  Biso   1.000  Ne
  He129    1.0000 0.93464  0.11558  0.88803  Biso   1.000  He
  He130    1.0000 0.93253  0.08891  0.90530  Biso   1.000  He
  Ne130    1.0000 0.92060  0.09437  0.93656  Biso   1.000  Ne
  Ne131    1.0000 0.36871  0.91149  0.80465  Biso   1.000  Ne
  He131    1.0000 0.38952  0.90167  0.82680  Biso   1.000  He
  He132    1.0000 0.39423  0.86676  0.82423  Biso   1.000  He
  Ne132    1.0000 0.41988  0.85946  0.84124  Biso   1.000  Ne
  Ne133    1.0000 0.91781  0.14400  0.22297  Biso   1.000  Ne
  He133    1.0000 0.90918  0.12390  0.19881  Biso   1.000  He
  He134    1.0000 0.90451  0.09505  0.20756  Biso   1.000  He
  Ne134    1.0000 0.89781  0.07760  0.17997  Biso   1.000  Ne
  Ne135    1.0000 0.89596  0.91281  0.78272  Biso   1.000  Ne
  He135    1.0000 0.90908  0.89848  0.75630  Biso   1.000  He
  He136    1.0000 0.91753  0.92121  0.73101  Biso   1.000  He
  Ne136    1.0000 0.93087  0.90843  0.70196  Biso   1.000  Ne
  Ne137    1.0000 0.14811  0.89752  0.10444  Biso   1.000  Ne
  He137    1.0000 0.13028  0.88557  0.12899  Biso   1.000  He
  He138    1.0000 0.10379  0.90588  0.13889  Biso   1.000  He
  Ne138    1.0000 0.08284  0.88954  0.16100  Biso   1.000  Ne
  Ne139    1.0000 0.60989  0.29938  0.09434  Biso   1.000  Ne
  He139    1.0000 0.60727  0.33280  0.09675  Biso   1.000  He
  He140    1.0000 0.63517  0.34905  0.08279  Biso   1.000  He
  Ne140    1.0000 0.63639  0.38155  0.08321  Biso   1.000  Ne
  Ne141    1.0000 0.45448  0.37098  0.94353  Biso   1.000  Ne
  He141    1.0000 0.44479  0.37889  0.91426  Biso   1.000  He
  He142    1.0000 0.44151  0.35324  0.89343  Biso   1.000  He
  Ne142    1.0000 0.43257  0.36047  0.86106  Biso   1.000  Ne
  Ne143    1.0000 0.49414  0.01055  0.58588  Biso   1.000  Ne
  He143    1.0000 0.47524  0.03223  0.56985  Biso   1.000  He
  He144    1.0000 0.49140  0.05271  0.54941  Biso   1.000  He
  Ne144    1.0000 0.46947  0.07463  0.53271  Biso   1.000  Ne
  Ne145    1.0000 0.87921  0.63573  0.27923  Biso   1.000  Ne
  He145    1.0000 0.90272  0.62614  0.30104  Biso   1.000  He
  He146    1.0000 0.91564  0.59851  0.29201  Biso   1.000  He
  Ne146    1.0000 0.94184  0.58888  0.31135  Biso   1.000  Ne
  Ne147    1.0000 0.60119  0.75969  0.63259  Biso   1.000  Ne
  He147    1.0000 0.59066  0.78841  0.61867  Biso   1.000  He
  He148    1.0000 0.60810  0.79743  0.59179  Biso   1.000  He
  Ne148    1.0000 0.60042  0.82693  0.57944  Biso   1.000  Ne
  Ne149    1.0000 0.52142  0.97679  0.42359  Biso   1.000  Ne
  He149    1.0000 0.51022  0.00687  0.43290  Biso   1.000  He
  He150    1.0000 0.49125  0.00721  0.45774  Biso   1.000  He
  Ne150    1.0000 0.48777  0.03714  0.46892  Biso   1.000  Ne
  Ne151    1.0000 0.19113  0.39884  0.44571  Biso   1.000  Ne
  He151    1.0000 0.16054  0.40493  0.43356  Biso   1.000  He
  He152    1.0000 0.15963  0.40973  0.40074  Biso   1.000  He
  Ne152    1.0000 0.12776  0.41690  0.39155  Biso   1.000  Ne
  Ne153    1.0000 0.29005  0.83610  0.58472  Biso   1.000  Ne
  He153    1.0000 0.31337  0.85897  0.58120  Biso   1.000  He
  He154    1.0000 0.34510  0.84823  0.58364  Biso   1.000  He
  Ne154    1.0000 0.36718  0.87324  0.58946  Biso   1.000  Ne
  Ne155    1.0000 0.21397  0.06354  0.90726  Biso   1.000  Ne
  He155    1.0000 0.24300  0.07525  0.91870  Biso   1.000  He
  He156    1.0000 0.26954  0.06590  0.90046  Biso   1.000  He
  Ne156    1.0000 0.29476  0.07272  0.91757  Biso   1.000  Ne
  Ne157    1.0000 0.60160  0.87113  0.67598  Biso   1.000  Ne
  He157    1.0000 0.63458  0.87797  0.67117  Biso   1.000  He
  He158    1.0000 0.64326  0.90817  0.67950  Biso   1.000  He
  Ne158    1.0000 0.67500  0.91241  0.66838  Biso   1.000  Ne
  Ne159    1.0000 0.09229  0.80777  0.10173  Biso   1.000  Ne
  He159    1.0000 0.12387  0.80137  0.11691  Biso   1.000  He
  He160    1.0000 0.14850  0.78976  0.09900  Biso   1.000  He
  Ne160    1.0000 0.17275  0.78630  0.11632  Biso   1.000  Ne
  Ne161    1.0000 0.07843  0.48642  0.43881  Biso   1.000  Ne
  He161    1.0000 0.10045  0.50065  0.46038  Biso   1.000  He
  He162    1.0000 0.08309  0.51086  0.48584  Biso   1.000  He
  Ne162    1.0000 0.10093  0.51469  0.51406  Biso   1.000  Ne
  Ne163    1.0000 0.42544  0.10567  0.63910  Biso   1.000  Ne
  He163    1.0000 0.39682  0.09926  0.62237  Biso   1.000  He
  He164    1.0000 0.39477  0.06702  0.61021  Biso   1.000  He
  Ne164    1.0000 0.36888  0.06268  0.59158  Biso   1.000  Ne
  Ne165    1.0000 0.58665  0.88392  0.37549  Biso   1.000  Ne
  He165    1.0000 0.58272  0.89672  0.40757  Biso   1.000  He
  He166    1.0000 0.57260  0.87194  0.42963  Biso   1.000  He
  Ne166    1.0000 0.56400  0.88280  0.46291  Biso   1.000  Ne
  Ne167    1.0000 0.60265  0.06055  0.62210  Biso   1.000  Ne
  He167    1.0000 0.60851  0.09269  0.62931  Biso   1.000  He
  He168    1.0000 0.62659  0.09991  0.65537  Biso   1.000  He
  Ne168    1.0000 0.63327  0.13261  0.66434  Biso   1.000  Ne
  Ne169    1.0000 0.60101  0.50510  0.03334  Biso   1.000  Ne
  He169    1.0000 0.59230  0.51650  0.00388  Biso   1.000  He
  He170    1.0000 0.61378  0.52435  0.97893  Biso   1.000  He
  Ne170    1.0000 0.60038  0.53707  0.95506  Biso   1.000  Ne
  Ne171    1.0000 0.91991  0.35010  0.31404  Biso   1.000  Ne
  He171    1.0000 0.92856  0.36653  0.28430  Biso   1.000  He
  He172    1.0000 0.94731  0.34694  0.26236  Biso   1.000  He
  Ne172    1.0000 0.95726  0.36158  0.23563  Biso   1.000  Ne
  Ne173    1.0000 0.91188  0.15610  0.08524  Biso   1.000  Ne
  He173    1.0000 0.88232  0.17075  0.09079  Biso   1.000  He
  He174    1.0000 0.86096  0.15652  0.11142  Biso   1.000  He
  Ne174    1.0000 0.82659  0.16161  0.10739  Biso   1.000  Ne
  Ne175    1.0000 0.19146  0.57217  0.58255  Biso   1.000  Ne
  He175    1.0000 0.18014  0.58084  0.61216  Biso   1.000  He
  He176    1.0000 0.20094  0.56549  0.63604  Biso   1.000  He
  Ne176    1.0000 0.18997  0.57266  0.66581  Biso   1.000  Ne
  Ne177    1.0000 0.60418  0.01057  0.55849  Biso   1.000  Ne
  He177    1.0000 0.59876  0.99689  0.53007  Biso   1.000  He
  He178    1.0000 0.59513  0.01639  0.50695  Biso   1.000  He
  Ne178    1.0000 0.58471  0.00308  0.47943  Biso   1.000  Ne
  Ne179    1.0000 0.85463  0.40754  0.34689  Biso   1.000  Ne
  He179    1.0000 0.84777  0.39879  0.37861  Biso   1.000  He
  He180    1.0000 0.85419  0.36754  0.38851  Biso   1.000  He
  Ne180    1.0000 0.84838  0.36198  0.42042  Biso   1.000  Ne
