data_image0
_cell_length_a       46.7333
_cell_length_b       46.6556
_cell_length_c       46.4764
_cell_angle_alpha    90
_cell_angle_beta     90
_cell_angle_gamma    90

_symmetry_space_group_name_H-M    "P 1"
_symmetry_int_tables_number       1

loop_
  _symmetry_equiv_pos_as_xyz
  'x, y, z'

loop_
  _atom_site_label
  _atom_site_occupancy
  _atom_site_fract_x
  _atom_site_fract_y
  _atom_site_fract_z
  _atom_site_thermal_displace_type
  _atom_site_B_iso_or_equiv
  _atom_site_type_symbol
  Ne1      1.0000 0.82606  0.07672  0.71233  Biso   1.000  Ne
  He1      1.0000 0.80065  0.09690  0.70967  Biso   1.000  He
  He2      1.0000 0.77170  0.08170  0.70815  Biso   1.000  He
  Ne2      1.0000 0.74370  0.10220  0.70358  Biso   1.000  Ne
  Ne3      1.0000 0.42539  0.38338  0.91805  Biso   1.000  Ne
  He3      1.0000 0.43649  0.40143  0.94346  Biso   1.000  He
  He4      1.0000 0.41220  0.41592  0.96219  Biso   1.000  He
  Ne4      1.0000 0.42349  0.43512  0.98936  Biso   1.000  Ne
  Ne5      1.0000 0.64230  0.93390  0.61773  Biso   1.000  Ne
  He5      1.0000 0.61894  0.91158  0.61786  Biso   1.000  He
  He6      1.0000 0.59420  0.91458  0.63812  Biso   1.000  He
  Ne6      1.0000 0.57902  0.88466  0.64284  Biso   1.000  Ne
  Ne7      1.0000 0.92640  0.80834  0.93968  Biso   1.000  Ne
  He7      1.0000 0.93891  0.83193  0.91921  Biso   1.000  He
  He8      1.0000 0.93590  0.82323  0.88834  Biso   1.000  He
  Ne8      1.0000 0.95003  0.84349  0.86884  Biso   1.000  Ne
  Ne9      1.0000 0.78113  0.30431  0.97013  Biso   1.000  Ne
  He9      1.0000 0.76481  0.32920  0.95552  Biso   1.000  He
  He10     1.0000 0.78247  0.35828  0.95383  Biso   1.000  He
  Ne10     1.0000 0.76554  0.38445  0.93963  Biso   1.000  Ne
  Ne11     1.0000 0.87235  0.07499  0.24252  Biso   1.000  Ne
  He11     1.0000 0.89658  0.07946  0.22016  Biso   1.000  He
  He12     1.0000 0.91129  0.10729  0.22629  Biso   1.000  He
  Ne12     1.0000 0.93576  0.11549  0.20394  Biso   1.000  Ne
  Ne13     1.0000 0.12008  0.55846  0.74876  Biso   1.000  Ne
  He13     1.0000 0.11057  0.58290  0.73398  Biso   1.000  He
  He14     1.0000 0.11961  0.61077  0.74458  Biso   1.000  He
  Ne14     1.0000 0.10508  0.63754  0.72815  Biso   1.000  Ne
  Ne15     1.0000 0.75744  0.10109  0.10851  Biso   1.000  Ne
  He15     1.0000 0.78741  0.11524  0.10919  Biso   1.000  He
  He16     1.0000 0.79674  0.13857  0.13422  Biso   1.000  He
  Ne16     1.0000 0.81666  0.12730  0.15786  Biso   1.000  Ne
  Ne17     1.0000 0.96203  0.92152  0.97726  Biso   1.000  Ne
  He17     1.0000 0.99500  0.92812  0.98050  Biso   1.000  He
  He18     1.0000 0.00334  0.95409  0.96145  Biso   1.000  He
  Ne18     1.0000 0.03523  0.95950  0.96177  Biso   1.000  Ne
  Ne19     1.0000 0.90515  0.18833  0.85425  Biso   1.000  Ne
  He19     1.0000 0.89581  0.19147  0.88673  Biso   1.000  He
  He20     1.0000 0.92291  0.19060  0.90856  Biso   1.000  He
  Ne20     1.0000 0.91542  0.18958  0.94129  Biso   1.000  Ne
  Ne21     1.0000 0.94494  0.95059  0.13185  Biso   1.000  Ne
  He21     1.0000 0.95862  0.92386  0.11535  Biso   1.000  He
  He22     1.0000 0.96053  0.92986  0.08271  Biso   1.000  He
  Ne22     1.0000 0.97638  0.90588  0.06714  Biso   1.000  Ne
  Ne23     1.0000 0.08354  0.84512  0.13883  Biso   1.000  Ne
  He23     1.0000 0.08869  0.81401  0.14398  Biso   1.000  He
  He24     1.0000 0.07466  0.79129  0.12471  Biso   1.000  He
  Ne24     1.0000 0.08027  0.76089  0.13111  Biso   1.000  Ne
  Ne25     1.0000 0.04123  0.44155  0.45002  Biso   1.000  Ne
  He25     1.0000 0.07195  0.43319  0.44528  Biso   1.000  He
  He26     1.0000 0.08457  0.42135  0.47352  Biso   1.000  He
  Ne26     1.0000 0.11828  0.41560  0.47445  Biso   1.000  Ne
  Ne27     1.0000 0.09528  0.36823  0.61043  Biso   1.000  Ne
  He27     1.0000 0.07999  0.39333  0.59347  Biso   1.000  He
  He28     1.0000 0.09377  0.42234  0.60134  Biso   1.000  He
  Ne28     1.0000 0.08766  0.44847  0.58224  Biso   1.000  Ne
  Ne29     1.0000 0.24955  0.33748  0.95404  Biso   1.000  Ne
  He29     1.0000 0.26850  0.36346  0.95588  Biso   1.000  He
  He30     1.0000 0.26337  0.38366  0.98509  Biso   1.000  He
  Ne30     1.0000 0.27960  0.41075  0.98410  Biso   1.000  Ne
  Ne31     1.0000 0.34085  0.38142  0.87406  Biso   1.000  Ne
  He31     1.0000 0.35991  0.39526  0.84922  Biso   1.000  He
  He32     1.0000 0.38598  0.41165  0.85804  Biso   1.000  He
  Ne32     1.0000 0.40133  0.42744  0.83270  Biso   1.000  Ne
  Ne33     1.0000 0.31668  0.26859  0.95991  Biso   1.000  Ne
  He33     1.0000 0.34866  0.27550  0.95328  Biso   1.000  He
  He34     1.0000 0.35477  0.30460  0.93754  Biso   1.000  He
  Ne34     1.0000 0.38377  0.31707  0.93398  Biso   1.000  Ne
  Ne35     1.0000 0.89123  0.00763  0.66664  Biso   1.000  Ne
  He35     1.0000 0.85852  0.01503  0.66749  Biso   1.000  He
  He36     1.0000 0.83760  0.98957  0.66589  Biso   1.000  He
  Ne36     1.0000 0.80553  0.99695  0.66712  Biso   1.000  Ne
  Ne37     1.0000 0.59368  0.40054  0.82827  Biso   1.000  Ne
  He37     1.0000 0.59541  0.37771  0.85178  Biso   1.000  He
  He38     1.0000 0.59182  0.38653  0.88400  Biso   1.000  He
  Ne38     1.0000 0.59530  0.36316  0.90637  Biso   1.000  Ne
  Ne39     1.0000 0.90612  0.84915  0.11034  Biso   1.000  Ne
  He39     1.0000 0.91053  0.81750  0.10337  Biso   1.000  He
  He40     1.0000 0.90394  0.79712  0.12667  Biso   1.000  He
  Ne40     1.0000 0.89850  0.76560  0.11993  Biso   1.000  Ne
  Ne41     1.0000 0.91505  0.28870  0.65552  Biso   1.000  Ne
  He41     1.0000 0.92044  0.31683  0.64406  Biso   1.000  He
  He42     1.0000 0.91127  0.32174  0.61255  Biso   1.000  He
  Ne42     1.0000 0.91579  0.35301  0.60350  Biso   1.000  Ne
  Ne43     1.0000 0.36985  0.17408  0.32087  Biso   1.000  Ne
  He43     1.0000 0.34853  0.19197  0.33812  Biso   1.000  He
  He44     1.0000 0.31521  0.18296  0.33374  Biso   1.000  He
  Ne44     1.0000 0.29583  0.19864  0.35467  Biso   1.000  Ne
  Ne45     1.0000 0.94010  0.40324  0.33461  Biso   1.000  Ne
  He45     1.0000 0.90873  0.41832  0.33456  Biso   1.000  He
  He46     1.0000 0.88153  0.40480  0.34851  Biso   1.000  He
  Ne46     1.0000 0.85306  0.42157  0.34384  Biso   1.000  Ne
  Ne47     1.0000 0.45043  0.07556  0.63040  Biso   1.000  Ne
  He47     1.0000 0.41958  0.07571  0.63903  Biso   1.000  He
  He48     1.0000 0.39768  0.09182  0.62080  Biso   1.000  He
  Ne48     1.0000 0.36882  0.09404  0.63639  Biso   1.000  Ne
  Ne49     1.0000 0.09821  0.18202  0.29263  Biso   1.000  Ne
  He49     1.0000 0.09871  0.16282  0.26394  Biso   1.000  He
  He50     1.0000 0.09305  0.17851  0.23279  Biso   1.000  He
  Ne50     1.0000 0.08604  0.15536  0.20626  Biso   1.000  Ne
  Ne51     1.0000 0.76838  0.37208  0.75124  Biso   1.000  Ne
  He51     1.0000 0.73981  0.37149  0.76908  Biso   1.000  He
  He52     1.0000 0.71622  0.39130  0.75407  Biso   1.000  He
  Ne52     1.0000 0.68250  0.38857  0.76303  Biso   1.000  Ne
  Ne53     1.0000 0.17418  0.09834  0.95672  Biso   1.000  Ne
  He53     1.0000 0.20328  0.09480  0.94419  Biso   1.000  He
  He54     1.0000 0.22799  0.10788  0.95959  Biso   1.000  He
  Ne54     1.0000 0.25320  0.11198  0.93991  Biso   1.000  Ne
  Ne55     1.0000 0.10464  0.10748  0.82027  Biso   1.000  Ne
  He55     1.0000 0.09923  0.08070  0.84255  Biso   1.000  He
  He56     1.0000 0.09726  0.09176  0.87210  Biso   1.000  He
  Ne56     1.0000 0.09786  0.06606  0.89009  Biso   1.000  Ne
  Ne57     1.0000 0.69006  0.91212  0.31513  Biso   1.000  Ne
  He57     1.0000 0.68177  0.88198  0.32455  Biso   1.000  He
  He58     1.0000 0.69865  0.86826  0.35341  Biso   1.000  He
  Ne58     1.0000 0.68817  0.83907  0.36660  Biso   1.000  Ne
  Ne59     1.0000 0.90285  0.23513  0.12841  Biso   1.000  Ne
  He59     1.0000 0.92051  0.21124  0.11095  Biso   1.000  He
  He60     1.0000 0.91658  0.18096  0.12362  Biso   1.000  He
  Ne60     1.0000 0.93566  0.15728  0.11124  Biso   1.000  Ne
  Ne61     1.0000 0.37912  0.57006  0.11882  Biso   1.000  Ne
  He61     1.0000 0.40907  0.56559  0.10208  Biso   1.000  He
  He62     1.0000 0.42803  0.59108  0.10457  Biso   1.000  He
  Ne62     1.0000 0.45717  0.59111  0.09154  Biso   1.000  Ne
  Ne63     1.0000 0.59054  0.12295  0.60721  Biso   1.000  Ne
  He63     1.0000 0.57987  0.10023  0.62852  Biso   1.000  He
  He64     1.0000 0.57424  0.06931  0.61513  Biso   1.000  He
  Ne64     1.0000 0.56503  0.04511  0.63451  Biso   1.000  Ne
  Ne65     1.0000 0.61195  0.92138  0.38800  Biso   1.000  Ne
  He65     1.0000 0.61057  0.89536  0.40511  Biso   1.000  He
  He66     1.0000 0.60531  0.87089  0.38321  Biso   1.000  He
  Ne66     1.0000 0.60326  0.84055  0.39793  Biso   1.000  Ne
  Ne67     1.0000 0.81046  0.92648  0.72478  Biso   1.000  Ne
  He67     1.0000 0.83523  0.92717  0.74874  Biso   1.000  He
  He68     1.0000 0.83128  0.90236  0.76921  Biso   1.000  He
  Ne68     1.0000 0.85750  0.90304  0.79341  Biso   1.000  Ne
  Ne69     1.0000 0.49797  0.09097  0.49750  Biso   1.000  Ne
  He69     1.0000 0.47421  0.06874  0.49148  Biso   1.000  He
  He70     1.0000 0.44615  0.08300  0.48528  Biso   1.000  He
  Ne70     1.0000 0.43793  0.09034  0.45407  Biso   1.000  Ne
  Ne71     1.0000 0.05324  0.59034  0.51944  Biso   1.000  Ne
  He71     1.0000 0.06739  0.58042  0.54720  Biso   1.000  He
  He72     1.0000 0.06836  0.54985  0.55627  Biso   1.000  He
  Ne72     1.0000 0.08445  0.54235  0.58274  Biso   1.000  Ne
  Ne73     1.0000 0.12500  0.66517  0.42363  Biso   1.000  Ne
  He73     1.0000 0.10032  0.68474  0.41101  Biso   1.000  He
  He74     1.0000 0.10538  0.71775  0.41849  Biso   1.000  He
  Ne74     1.0000 0.08708  0.74065  0.39995  Biso   1.000  Ne
  Ne75     1.0000 0.92667  0.61807  0.41267  Biso   1.000  Ne
  He75     1.0000 0.92034  0.65062  0.41005  Biso   1.000  He
  He76     1.0000 0.91155  0.66473  0.43862  Biso   1.000  He
  Ne76     1.0000 0.91423  0.69858  0.44310  Biso   1.000  Ne
  Ne77     1.0000 0.44813  0.88940  0.45638  Biso   1.000  Ne
  He77     1.0000 0.47009  0.91392  0.45041  Biso   1.000  He
  He78     1.0000 0.48473  0.92815  0.47754  Biso   1.000  He
  Ne78     1.0000 0.50477  0.95413  0.47406  Biso   1.000  Ne
  Ne79     1.0000 0.77424  0.95014  0.59454  Biso   1.000  Ne
  He79     1.0000 0.74669  0.93848  0.61294  Biso   1.000  He
  He80     1.0000 0.74102  0.90588  0.60788  Biso   1.000  He
  Ne80     1.0000 0.71177  0.89533  0.62518  Biso   1.000  Ne
  Ne81     1.0000 0.59991  0.08846  0.75871  Biso   1.000  Ne
  He81     1.0000 0.61846  0.11683  0.75038  Biso   1.000  He
  He82     1.0000 0.60844  0.13083  0.72194  Biso   1.000  He
  Ne82     1.0000 0.62794  0.15490  0.71520  Biso   1.000  Ne
  Ne83     1.0000 0.38899  0.40899  0.27545  Biso   1.000  Ne
  He83     1.0000 0.40567  0.38673  0.25425  Biso   1.000  He
  He84     1.0000 0.41412  0.39729  0.22437  Biso   1.000  He
  Ne84     1.0000 0.43507  0.37478  0.21005  Biso   1.000  Ne
  Ne85     1.0000 0.92255  0.42692  0.64911  Biso   1.000  Ne
  He85     1.0000 0.92429  0.43688  0.67894  Biso   1.000  He
  He86     1.0000 0.89457  0.43901  0.69288  Biso   1.000  He
  Ne86     1.0000 0.89334  0.44554  0.72666  Biso   1.000  Ne
  Ne87     1.0000 0.43849  0.87577  0.37189  Biso   1.000  Ne
  He87     1.0000 0.43265  0.89329  0.34612  Biso   1.000  He
  He88     1.0000 0.40059  0.89691  0.33726  Biso   1.000  He
  Ne88     1.0000 0.39746  0.91292  0.30985  Biso   1.000  Ne
  Ne89     1.0000 0.18215  0.20935  0.12054  Biso   1.000  Ne
  He89     1.0000 0.16172  0.18496  0.11183  Biso   1.000  He
  He90     1.0000 0.12778  0.18796  0.11970  Biso   1.000  He
  Ne90     1.0000 0.11090  0.16464  0.10468  Biso   1.000  Ne
  Ne91     1.0000 0.63580  0.58379  0.11002  Biso   1.000  Ne
  He91     1.0000 0.63280  0.61537  0.11355  Biso   1.000  He
  He92     1.0000 0.60344  0.62074  0.13216  Biso   1.000  He
  Ne92     1.0000 0.59854  0.65229  0.14300  Biso   1.000  Ne
  Ne93     1.0000 0.17858  0.57740  0.69112  Biso   1.000  Ne
  He93     1.0000 0.20653  0.56793  0.67618  Biso   1.000  He
  He94     1.0000 0.20434  0.57026  0.64405  Biso   1.000  He
  Ne94     1.0000 0.23289  0.55783  0.62992  Biso   1.000  Ne
  Ne95     1.0000 0.42859  0.71534  0.22517  Biso   1.000  Ne
  He95     1.0000 0.43113  0.69297  0.20138  Biso   1.000  He
  He96     1.0000 0.40504  0.68011  0.18804  Biso   1.000  He
  Ne96     1.0000 0.40511  0.66534  0.15851  Biso   1.000  Ne
  Ne97     1.0000 0.34408  0.11443  0.45300  Biso   1.000  Ne
  He97     1.0000 0.36389  0.13794  0.44216  Biso   1.000  He
  He98     1.0000 0.35421  0.16587  0.44994  Biso   1.000  He
  Ne98     1.0000 0.37527  0.18978  0.44380  Biso   1.000  Ne
  Ne99     1.0000 0.78041  0.31896  0.44822  Biso   1.000  Ne
  He99     1.0000 0.75533  0.33992  0.45297  Biso   1.000  He
  He100    1.0000 0.73611  0.33303  0.47984  Biso   1.000  He
  Ne100    1.0000 0.71322  0.35746  0.48510  Biso   1.000  Ne
  Ne101    1.0000 0.42727  0.64000  0.92836  Biso   1.000  Ne
  He101    1.0000 0.42489  0.65839  0.90074  Biso   1.000  He
  He102    1.0000 0.42493  0.68941  0.90871  Biso   1.000  He
  Ne102    1.0000 0.42281  0.70862  0.88224  Biso   1.000  Ne
  Ne103    1.0000 0.59042  0.78521  0.62544  Biso   1.000  Ne
  He103    1.0000 0.59545  0.80589  0.65139  Biso   1.000  He
  He104    1.0000 0.60026  0.79077  0.68275  Biso   1.000  He
  Ne104    1.0000 0.60051  0.81562  0.70440  Biso   1.000  Ne
  Ne105    1.0000 0.33099  0.91314  0.44407  Biso   1.000  Ne
  He105    1.0000 0.33880  0.87989  0.44958  Biso   1.000  He
  He106    1.0000 0.37004  0.87290  0.44290  Biso   1.000  He
  Ne106    1.0000 0.38003  0.84139  0.44090  Biso   1.000  Ne
  Ne107    1.0000 0.60286  0.45455  0.92002  Biso   1.000  Ne
  He107    1.0000 0.58704  0.46116  0.95208  Biso   1.000  He
  He108    1.0000 0.56557  0.48404  0.95005  Biso   1.000  He
  Ne108    1.0000 0.54966  0.49080  0.97944  Biso   1.000  Ne
  Ne109    1.0000 0.24025  0.67934  0.44025  Biso   1.000  Ne
  He109    1.0000 0.24728  0.70393  0.41695  Biso   1.000  He
  He110    1.0000 0.24127  0.69755  0.38530  Biso   1.000  He
  Ne110    1.0000 0.25078  0.72189  0.36557  Biso   1.000  Ne
  Ne111    1.0000 0.92101  0.59981  0.70892  Biso   1.000  Ne
  He111    1.0000 0.88949  0.58959  0.70095  Biso   1.000  He
  He112    1.0000 0.86659  0.60563  0.72038  Biso   1.000  He
  Ne112    1.0000 0.83488  0.59879  0.71101  Biso   1.000  Ne
  Ne113    1.0000 0.59099  0.35419  0.16593  Biso   1.000  Ne
  He113    1.0000 0.60441  0.37536  0.18341  Biso   1.000  He
  He114    1.0000 0.60768  0.40036  0.16540  Biso   1.000  He
  Ne114    1.0000 0.61977  0.42888  0.18444  Biso   1.000  Ne
  Ne115    1.0000 0.82754  0.42338  0.61654  Biso   1.000  Ne
  He115    1.0000 0.79909  0.43717  0.61867  Biso   1.000  He
  He116    1.0000 0.77589  0.41766  0.63100  Biso   1.000  He
  Ne116    1.0000 0.74463  0.43022  0.62732  Biso   1.000  Ne
  Ne117    1.0000 0.93359  0.07499  0.86563  Biso   1.000  Ne
  He117    1.0000 0.92346  0.08356  0.89613  Biso   1.000  He
  He118    1.0000 0.94524  0.10136  0.91482  Biso   1.000  He
  Ne118    1.0000 0.93410  0.11353  0.94467  Biso   1.000  Ne
  Ne119    1.0000 0.52644  0.49200  0.08374  Biso   1.000  Ne
  He119    1.0000 0.55002  0.51716  0.08427  Biso   1.000  He
  He120    1.0000 0.56127  0.52431  0.05453  Biso   1.000  He
  Ne120    1.0000 0.58904  0.54100  0.05598  Biso   1.000  Ne
  Ne121    1.0000 0.59474  0.11815  0.43209  Biso   1.000  Ne
  He121    1.0000 0.60210  0.09367  0.45311  Biso   1.000  He
  He122    1.0000 0.58155  0.06942  0.44675  Biso   1.000  He
  Ne122    1.0000 0.58297  0.04118  0.46760  Biso   1.000  Ne
  Ne123    1.0000 0.17384  0.34470  0.44728  Biso   1.000  Ne
  He123    1.0000 0.14313  0.32918  0.45447  Biso   1.000  He
  He124    1.0000 0.11515  0.34223  0.44092  Biso   1.000  He
  Ne124    1.0000 0.08688  0.32611  0.44742  Biso   1.000  Ne
  Ne125    1.0000 0.96811  0.04383  0.96449  Biso   1.000  Ne
  He125    1.0000 0.96653  0.02726  0.99470  Biso   1.000  He
  He126    1.0000 0.93854  0.01080  0.00325  Biso   1.000  He
  Ne126    1.0000 0.94600  0.98830  0.02480  Biso   1.000  Ne
  Ne127    1.0000 0.94572  0.55064  0.46510  Biso   1.000  Ne
  He127    1.0000 0.97838  0.54933  0.46406  Biso   1.000  He
  He128    1.0000 0.99535  0.52700  0.44734  Biso   1.000  He
  Ne128    1.0000 0.02851  0.53161  0.44851  Biso   1.000  Ne
  Ne129    1.0000 0.41937  0.26411  0.14333  Biso   1.000  Ne
  He129    1.0000 0.42672  0.28986  0.12361  Biso   1.000  He
  He130    1.0000 0.42518  0.31965  0.13839  Biso   1.000  He
  Ne130    1.0000 0.43362  0.34510  0.11929  Biso   1.000  Ne
  Ne131    1.0000 0.69201  0.41354  0.91921  Biso   1.000  Ne
  He131    1.0000 0.69248  0.41871  0.88865  Biso   1.000  He
  He132    1.0000 0.72119  0.42940  0.87389  Biso   1.000  He
  Ne132    1.0000 0.72280  0.42607  0.83979  Biso   1.000  Ne
  Ne133    1.0000 0.78598  0.72033  0.95633  Biso   1.000  Ne
  He133    1.0000 0.79764  0.75011  0.95603  Biso   1.000  He
  He134    1.0000 0.83085  0.75262  0.95043  Biso   1.000  He
  Ne134    1.0000 0.84495  0.78353  0.94984  Biso   1.000  Ne
  Ne135    1.0000 0.43433  0.86594  0.70117  Biso   1.000  Ne
  He135    1.0000 0.41495  0.89007  0.71821  Biso   1.000  He
  He136    1.0000 0.43181  0.91405  0.73535  Biso   1.000  He
  Ne136    1.0000 0.43686  0.90859  0.76735  Biso   1.000  Ne
  Ne137    1.0000 0.96027  0.45545  0.51289  Biso   1.000  Ne
  He137    1.0000 0.96238  0.43317  0.49315  Biso   1.000  He
  He138    1.0000 0.93681  0.42710  0.47722  Biso   1.000  He
  Ne138    1.0000 0.93992  0.40295  0.45515  Biso   1.000  Ne
  Ne139    1.0000 0.53721  0.93483  0.57401  Biso   1.000  Ne
  He139    1.0000 0.56532  0.95168  0.55957  Biso   1.000  He
  He140    1.0000 0.56631  0.94731  0.52525  Biso   1.000  He
  Ne140    1.0000 0.59258  0.96527  0.51190  Biso   1.000  Ne
  Ne141    1.0000 0.38545  0.20573  0.99965  Biso   1.000  Ne
  He141    1.0000 0.35555  0.19422  0.00384  Biso   1.000  He
  He142    1.0000 0.35318  0.16068  0.01659  Biso   1.000  He
  Ne142    1.0000 0.32283  0.15370  0.02589  Biso   1.000  Ne
  Ne143    1.0000 0.06609  0.93102  0.07649  Biso   1.000  Ne
  He143    1.0000 0.04866  0.95474  0.06489  Biso   1.000  He
  He144    1.0000 0.04266  0.97829  0.08315  Biso   1.000  He
  Ne144    1.0000 0.01977  0.99853  0.07086  Biso   1.000  Ne
  Ne145    1.0000 0.34881  0.81493  0.64750  Biso   1.000  Ne
  He145    1.0000 0.36934  0.81650  0.61913  Biso   1.000  He
  He146    1.0000 0.39942  0.83175  0.62609  Biso   1.000  He
  Ne146    1.0000 0.42086  0.83196  0.59820  Biso   1.000  Ne
  Ne147    1.0000 0.59301  0.07952  0.31260  Biso   1.000  Ne
  He147    1.0000 0.61711  0.09122  0.33460  Biso   1.000  He
  He148    1.0000 0.64920  0.08511  0.32632  Biso   1.000  He
  Ne148    1.0000 0.66770  0.08178  0.35271  Biso   1.000  Ne
  Ne149    1.0000 0.42705  0.08791  0.36642  Biso   1.000  Ne
  He149    1.0000 0.39880  0.07540  0.35231  Biso   1.000  He
  He150    1.0000 0.38102  0.09931  0.33431  Biso   1.000  He
  Ne150    1.0000 0.35691  0.08768  0.31763  Biso   1.000  Ne
  Ne151    1.0000 0.91503  0.27903  0.43851  Biso   1.000  Ne
  He151    1.0000 0.90710  0.31110  0.43887  Biso   1.000  He
  He152    1.0000 0.93081  0.33394  0.42576  Biso   1.000  He
  Ne152    1.0000 0.92305  0.34409  0.39455  Biso   1.000  Ne
  Ne153    1.0000 0.81752  0.17360  0.91771  Biso   1.000  Ne
  He153    1.0000 0.82250  0.14727  0.93650  Biso   1.000  He
  He154    1.0000 0.85279  0.13194  0.93177  Biso   1.000  He
  Ne154    1.0000 0.85899  0.10035  0.94551  Biso   1.000  Ne
  Ne155    1.0000 0.11009  0.86452  0.85058  Biso   1.000  Ne
  He155    1.0000 0.10485  0.87519  0.88180  Biso   1.000  He
  He156    1.0000 0.10800  0.90572  0.88047  Biso   1.000  He
  Ne156    1.0000 0.10863  0.92084  0.90934  Biso   1.000  Ne
  Ne157    1.0000 0.68266  0.39874  0.09581  Biso   1.000  Ne
  He157    1.0000 0.68518  0.39149  0.12941  Biso   1.000  He
  He158    1.0000 0.70065  0.41418  0.14833  Biso   1.000  He
  Ne158    1.0000 0.70260  0.40826  0.17922  Biso   1.000  Ne
  Ne159    1.0000 0.67966  0.94348  0.77478  Biso   1.000  Ne
  He159    1.0000 0.67396  0.93048  0.74527  Biso   1.000  He
  He160    1.0000 0.64294  0.93516  0.73082  Biso   1.000  He
  Ne160    1.0000 0.64118  0.92035  0.70184  Biso   1.000  Ne
  Ne161    1.0000 0.10947  0.58460  0.35588  Biso   1.000  Ne
  He161    1.0000 0.11894  0.60175  0.33007  Biso   1.000  He
  He162    1.0000 0.09506  0.61968  0.31821  Biso   1.000  He
  Ne162    1.0000 0.10342  0.64087  0.29201  Biso   1.000  Ne
  Ne163    1.0000 0.12276  0.69308  0.60026  Biso   1.000  Ne
  He163    1.0000 0.13413  0.66163  0.60868  Biso   1.000  He
  He164    1.0000 0.11106  0.64265  0.62837  Biso   1.000  He
  Ne164    1.0000 0.12280  0.61228  0.63478  Biso   1.000  Ne
  Ne165    1.0000 0.14827  0.58022  0.46349  Biso   1.000  Ne
  He165    1.0000 0.16801  0.59843  0.44557  Biso   1.000  He
  He166    1.0000 0.17455  0.58673  0.41330  Biso   1.000  He
  Ne166    1.0000 0.19019  0.60728  0.39925  Biso   1.000  Ne
  Ne167    1.0000 0.75073  0.08300  0.45879  Biso   1.000  Ne
  He167    1.0000 0.72942  0.10318  0.44335  Biso   1.000  He
  He168    1.0000 0.69814  0.10323  0.45484  Biso   1.000  He
  Ne168    1.0000 0.67682  0.12343  0.44150  Biso   1.000  Ne
  Ne169    1.0000 0.10572  0.01125  0.97882  Biso   1.000  Ne
  He169    1.0000 0.09673  0.98605  0.99640  Biso   1.000  He
  He170    1.0000 0.10940  0.95492  0.98744  Biso   1.000  He
  Ne170    1.0000 0.09952  0.93085  0.00472  Biso   1.000  Ne
  Ne171    1.0000 0.14439  0.40384  0.39357  Biso   1.000  Ne
  He171    1.0000 0.13383  0.40868  0.36169  Biso   1.000  He
  He172    1.0000 0.10309  0.40223  0.35640  Biso   1.000  He
  Ne172    1.0000 0.09458  0.40884  0.32633  Biso   1.000  Ne
  Ne173    1.0000 0.59529  0.71985  0.94859  Biso   1.000  Ne
  He173    1.0000 0.59928  0.68553  0.94573  Biso   1.000  He
  He174    1.0000 0.62420  0.67442  0.92943  Biso   1.000  He
  Ne174    1.0000 0.63193  0.64193  0.93141  Biso   1.000  Ne
  Ne175    1.0000 0.00884  0.44167  0.60755  Biso   1.000  Ne
  He175    1.0000 0.00059  0.47154  0.60526  Biso   1.000  He
  He176    1.0000 0.99725  0.48373  0.57429  Biso   1.000  He
  Ne176    1.0000 0.00385  0.51521  0.57302  Biso   1.000  Ne
  Ne177    1.0000 0.21615  0.10503  0.20025  Biso   1.000  Ne
  He177    1.0000 0.18616  0.11477  0.18765  Biso   1.000  He
  He178    1.0000 0.17204  0.08717  0.17825  Biso   1.000  He
  Ne178    1.0000 0.14555  0.07498  0.19734  Biso   1.000  Ne
  Ne179    1.0000 0.30315  0.76643  0.12482  Biso   1.000  Ne
  He179    1.0000 0.30518  0.79851  0.13026  Biso   1.000  He
  He180    1.0000 0.32176  0.81556  0.10851  Biso   1.000  He
  Ne180    1.0000 0.30364  0.83135  0.08348  Biso   1.000  Ne
  Ne181    1.0000 0.97225  0.08215  0.07826  Biso   1.000  Ne
  He181    1.0000 0.94642  0.07473  0.10187  Biso   1.000  He
  He182    1.0000 0.91543  0.06956  0.08781  Biso   1.000  He
  Ne182    1.0000 0.88852  0.06202  0.10788  Biso   1.000  Ne
  Ne183    1.0000 0.09220  0.22404  0.94133  Biso   1.000  Ne
  He183    1.0000 0.09526  0.19256  0.92649  Biso   1.000  He
  He184    1.0000 0.08671  0.17107  0.94704  Biso   1.000  He
  Ne184    1.0000 0.09700  0.14013  0.93966  Biso   1.000  Ne
  Ne185    1.0000 0.18024  0.91798  0.93526  Biso   1.000  Ne
  He185    1.0000 0.20320  0.89652  0.93647  Biso   1.000  He
  He186    1.0000 0.19644  0.86863  0.91543  Biso   1.000  He
  Ne186    1.0000 0.21557  0.84162  0.92139  Biso   1.000  Ne
  Ne187    1.0000 0.17545  0.83566  0.12124  Biso   1.000  Ne
  He187    1.0000 0.15532  0.86287  0.12698  Biso   1.000  He
  He188    1.0000 0.17218  0.89167  0.12137  Biso   1.000  He
  Ne188    1.0000 0.15467  0.91879  0.12470  Biso   1.000  Ne
  Ne189    1.0000 0.85491  0.61494  0.32596  Biso   1.000  Ne
  He189    1.0000 0.84735  0.59037  0.30236  Biso   1.000  He
  He190    1.0000 0.87216  0.57926  0.28409  Biso   1.000  He
  Ne190    1.0000 0.86149  0.56053  0.26111  Biso   1.000  Ne
  Ne191    1.0000 0.35747  0.58509  0.20172  Biso   1.000  Ne
  He191    1.0000 0.39019  0.57242  0.20725  Biso   1.000  He
  He192    1.0000 0.39962  0.57068  0.23969  Biso   1.000  He
  Ne192    1.0000 0.43031  0.56355  0.24561  Biso   1.000  Ne
  Ne193    1.0000 0.15070  0.88151  0.20909  Biso   1.000  Ne
  He193    1.0000 0.13032  0.90760  0.20278  Biso   1.000  He
  He194    1.0000 0.09947  0.90041  0.19636  Biso   1.000  He
  Ne194    1.0000 0.08409  0.92273  0.17840  Biso   1.000  Ne
  Ne195    1.0000 0.33293  0.89253  0.61148  Biso   1.000  Ne
  He195    1.0000 0.35095  0.91846  0.61322  Biso   1.000  He
  He196    1.0000 0.38276  0.91598  0.61210  Biso   1.000  He
  Ne196    1.0000 0.40098  0.94292  0.61480  Biso   1.000  Ne
  Ne197    1.0000 0.18264  0.08073  0.86164  Biso   1.000  Ne
  He197    1.0000 0.19455  0.08658  0.82918  Biso   1.000  He
  He198    1.0000 0.18281  0.06482  0.80942  Biso   1.000  He
  Ne198    1.0000 0.18574  0.07186  0.77904  Biso   1.000  Ne
  Ne199    1.0000 0.79789  0.46204  0.04960  Biso   1.000  Ne
  He199    1.0000 0.78139  0.44339  0.07155  Biso   1.000  He
  He200    1.0000 0.78896  0.41127  0.06814  Biso   1.000  He
  Ne200    1.0000 0.76828  0.39117  0.08547  Biso   1.000  Ne
  Ne201    1.0000 0.36665  0.20101  0.60885  Biso   1.000  Ne
  He201    1.0000 0.38969  0.18930  0.62959  Biso   1.000  He
  He202    1.0000 0.41520  0.17049  0.61604  Biso   1.000  He
  Ne202    1.0000 0.43777  0.15810  0.63755  Biso   1.000  Ne
  Ne203    1.0000 0.83676  0.90906  0.86807  Biso   1.000  Ne
  He203    1.0000 0.83392  0.91687  0.90007  Biso   1.000  He
  He204    1.0000 0.84535  0.89137  0.91978  Biso   1.000  He
  Ne204    1.0000 0.84566  0.89899  0.95131  Biso   1.000  Ne
  Ne205    1.0000 0.81584  0.61069  0.61806  Biso   1.000  Ne
  He205    1.0000 0.84403  0.59478  0.62375  Biso   1.000  He
  He206    1.0000 0.86432  0.59762  0.59929  Biso   1.000  He
  Ne206    1.0000 0.89527  0.58649  0.60392  Biso   1.000  Ne
  Ne207    1.0000 0.07314  0.06754  0.06522  Biso   1.000  Ne
  He207    1.0000 0.10574  0.06846  0.06716  Biso   1.000  He
  He208    1.0000 0.11966  0.06609  0.09767  Biso   1.000  He
  Ne208    1.0000 0.14043  0.08991  0.10512  Biso   1.000  Ne
  Ne209    1.0000 0.46399  0.70692  0.38992  Biso   1.000  Ne
  He209    1.0000 0.44895  0.73123  0.37667  Biso   1.000  He
  He210    1.0000 0.45118  0.75943  0.39647  Biso   1.000  He
  Ne210    1.0000 0.43854  0.78901  0.38621  Biso   1.000  Ne
  Ne211    1.0000 0.72932  0.08617  0.60396  Biso   1.000  Ne
  He211    1.0000 0.70676  0.09611  0.62575  Biso   1.000  He
  He212    1.0000 0.67864  0.07825  0.62878  Biso   1.000  He
  Ne212    1.0000 0.66034  0.08514  0.65563  Biso   1.000  Ne
  Ne213    1.0000 0.69198  0.92259  0.44905  Biso   1.000  Ne
  He213    1.0000 0.70356  0.89057  0.45280  Biso   1.000  He
  He214    1.0000 0.68043  0.86721  0.44855  Biso   1.000  He
  Ne214    1.0000 0.68839  0.83375  0.45735  Biso   1.000  Ne
  Ne215    1.0000 0.16550  0.37878  0.71849  Biso   1.000  Ne
  He215    1.0000 0.17615  0.39460  0.69107  Biso   1.000  He
  He216    1.0000 0.20253  0.38248  0.67604  Biso   1.000  He
  Ne216    1.0000 0.21608  0.40097  0.65383  Biso   1.000  Ne
  Ne217    1.0000 0.83572  0.37625  0.43801  Biso   1.000  Ne
  He217    1.0000 0.80911  0.39115  0.42739  Biso   1.000  He
  He218    1.0000 0.80107  0.38873  0.39391  Biso   1.000  He
  Ne218    1.0000 0.77326  0.40169  0.38406  Biso   1.000  Ne
  Ne219    1.0000 0.81070  0.90207  0.12654  Biso   1.000  Ne
  He219    1.0000 0.83238  0.90662  0.15244  Biso   1.000  He
  He220    1.0000 0.86215  0.91815  0.14070  Biso   1.000  He
  Ne220    1.0000 0.88570  0.92035  0.16530  Biso   1.000  Ne
