data_image0
_cell_length_a       46.5462
_cell_length_b       47.0233
_cell_length_c       46.6038
_cell_angle_alpha    90
_cell_angle_beta     90
_cell_angle_gamma    90

_symmetry_space_group_name_H-M    "P 1"
_symmetry_int_tables_number       1

loop_
  _symmetry_equiv_pos_as_xyz
  'x, y, z'

loop_
  _atom_site_label
  _atom_site_occupancy
  _atom_site_fract_x
  _atom_site_fract_y
  _atom_site_fract_z
  _atom_site_thermal_displace_type
  _atom_site_B_iso_or_equiv
  _atom_site_type_symbol
  Ne1      1.0000 0.46061  0.35921  0.94150  Biso   1.000  Ne
  He1      1.0000 0.43338  0.34174  0.93537  Biso   1.000  He
  He2      1.0000 0.42920  0.31010  0.92435  Biso   1.000  He
  Ne2      1.0000 0.39640  0.29877  0.92143  Biso   1.000  Ne
  Ne3      1.0000 0.45958  0.73645  0.95573  Biso   1.000  Ne
  He3      1.0000 0.46072  0.73259  0.92073  Biso   1.000  He
  He4      1.0000 0.45551  0.76332  0.90688  Biso   1.000  He
  Ne4      1.0000 0.45810  0.76508  0.87690  Biso   1.000  Ne
  Ne5      1.0000 0.00323  0.03329  0.09424  Biso   1.000  Ne
  He5      1.0000 0.03588  0.04172  0.09657  Biso   1.000  He
  He6      1.0000 0.05291  0.04644  0.06787  Biso   1.000  He
  Ne6      1.0000 0.08316  0.05886  0.06882  Biso   1.000  Ne
  Ne7      1.0000 0.57657  0.91554  0.49199  Biso   1.000  Ne
  He7      1.0000 0.59519  0.89928  0.46823  Biso   1.000  He
  He8      1.0000 0.61675  0.92047  0.45395  Biso   1.000  He
  Ne8      1.0000 0.63127  0.90741  0.42956  Biso   1.000  Ne
  Ne9      1.0000 0.43596  0.44171  0.05502  Biso   1.000  Ne
  He9      1.0000 0.45815  0.43238  0.07936  Biso   1.000  He
  He10     1.0000 0.47946  0.40872  0.07216  Biso   1.000  He
  Ne10     1.0000 0.49985  0.40416  0.09927  Biso   1.000  Ne
  Ne11     1.0000 0.64552  0.55223  0.94186  Biso   1.000  Ne
  He11     1.0000 0.65991  0.58201  0.93292  Biso   1.000  He
  He12     1.0000 0.69192  0.57826  0.92913  Biso   1.000  He
  Ne12     1.0000 0.71043  0.60433  0.91612  Biso   1.000  Ne
  Ne13     1.0000 0.76119  0.53242  0.61238  Biso   1.000  Ne
  He13     1.0000 0.74049  0.52316  0.58630  Biso   1.000  He
  He14     1.0000 0.75318  0.52410  0.55583  Biso   1.000  He
  Ne14     1.0000 0.73148  0.51786  0.53229  Biso   1.000  Ne
  Ne15     1.0000 0.39673  0.27353  0.11404  Biso   1.000  Ne
  He15     1.0000 0.41921  0.25783  0.09605  Biso   1.000  He
  He16     1.0000 0.44894  0.26378  0.10563  Biso   1.000  He
  Ne16     1.0000 0.46936  0.24297  0.08895  Biso   1.000  Ne
  Ne17     1.0000 0.43801  0.34210  0.10058  Biso   1.000  Ne
  He17     1.0000 0.44524  0.34573  0.12943  Biso   1.000  He
  He18     1.0000 0.42232  0.35617  0.14875  Biso   1.000  He
  Ne18     1.0000 0.43676  0.35984  0.17942  Biso   1.000  Ne
  Ne19     1.0000 0.90949  0.78932  0.16397  Biso   1.000  Ne
  He19     1.0000 0.93417  0.76713  0.16165  Biso   1.000  He
  He20     1.0000 0.93327  0.75282  0.13346  Biso   1.000  He
  Ne20     1.0000 0.95250  0.72677  0.13324  Biso   1.000  Ne
  Ne21     1.0000 0.09188  0.40040  0.59088  Biso   1.000  Ne
  He21     1.0000 0.12340  0.41322  0.59282  Biso   1.000  He
  He22     1.0000 0.14452  0.39411  0.60613  Biso   1.000  He
  Ne22     1.0000 0.17446  0.40350  0.60187  Biso   1.000  Ne
  Ne23     1.0000 0.28375  0.14553  0.36438  Biso   1.000  Ne
  He23     1.0000 0.28354  0.17934  0.37006  Biso   1.000  He
  He24     1.0000 0.25567  0.19002  0.38454  Biso   1.000  He
  Ne24     1.0000 0.25936  0.22180  0.39178  Biso   1.000  Ne
  Ne25     1.0000 0.92165  0.38258  0.70255  Biso   1.000  Ne
  He25     1.0000 0.90488  0.38855  0.67777  Biso   1.000  He
  He26     1.0000 0.88703  0.36369  0.66564  Biso   1.000  He
  Ne26     1.0000 0.86270  0.37028  0.64745  Biso   1.000  Ne
  Ne27     1.0000 0.94376  0.92236  0.11935  Biso   1.000  Ne
  He27     1.0000 0.94802  0.89094  0.13198  Biso   1.000  He
  He28     1.0000 0.95769  0.88962  0.16456  Biso   1.000  He
  Ne28     1.0000 0.95035  0.85911  0.17374  Biso   1.000  Ne
  Ne29     1.0000 0.59109  0.38096  0.82086  Biso   1.000  Ne
  He29     1.0000 0.58420  0.36151  0.84593  Biso   1.000  He
  He30     1.0000 0.60732  0.33716  0.85143  Biso   1.000  He
  Ne30     1.0000 0.60047  0.31361  0.87552  Biso   1.000  Ne
  Ne31     1.0000 0.74768  0.05005  0.39796  Biso   1.000  Ne
  He31     1.0000 0.71749  0.05780  0.41297  Biso   1.000  He
  He32     1.0000 0.71704  0.05912  0.44691  Biso   1.000  He
  Ne32     1.0000 0.68573  0.06023  0.45846  Biso   1.000  Ne
  Ne33     1.0000 0.44948  0.64928  0.92644  Biso   1.000  Ne
  He33     1.0000 0.45131  0.61697  0.94390  Biso   1.000  He
  He34     1.0000 0.45597  0.58906  0.92360  Biso   1.000  He
  Ne34     1.0000 0.45784  0.56061  0.93988  Biso   1.000  Ne
  Ne35     1.0000 0.68028  0.56141  0.10845  Biso   1.000  Ne
  He35     1.0000 0.66409  0.58938  0.11672  Biso   1.000  He
  He36     1.0000 0.68432  0.61706  0.11699  Biso   1.000  He
  Ne36     1.0000 0.66581  0.64484  0.12291  Biso   1.000  Ne
  Ne37     1.0000 0.44441  0.10998  0.33916  Biso   1.000  Ne
  He37     1.0000 0.43564  0.09362  0.36711  Biso   1.000  He
  He38     1.0000 0.41160  0.06883  0.36380  Biso   1.000  He
  Ne38     1.0000 0.40471  0.05368  0.39216  Biso   1.000  Ne
  Ne39     1.0000 0.13320  0.38976  0.43872  Biso   1.000  Ne
  He39     1.0000 0.16048  0.40842  0.43315  Biso   1.000  He
  He40     1.0000 0.19054  0.39160  0.42754  Biso   1.000  He
  Ne40     1.0000 0.21500  0.41186  0.41542  Biso   1.000  Ne
  Ne41     1.0000 0.63124  0.10799  0.61707  Biso   1.000  Ne
  He41     1.0000 0.60812  0.08152  0.62663  Biso   1.000  He
  He42     1.0000 0.57566  0.08668  0.61944  Biso   1.000  He
  Ne42     1.0000 0.56570  0.07582  0.59113  Biso   1.000  Ne
  Ne43     1.0000 0.44489  0.86011  0.83100  Biso   1.000  Ne
  He43     1.0000 0.42831  0.84533  0.80344  Biso   1.000  He
  He44     1.0000 0.43514  0.81226  0.79628  Biso   1.000  He
  Ne44     1.0000 0.41637  0.79969  0.77447  Biso   1.000  Ne
  Ne45     1.0000 0.96981  0.25500  0.61602  Biso   1.000  Ne
  He45     1.0000 0.95796  0.22628  0.60283  Biso   1.000  He
  He46     1.0000 0.98172  0.21218  0.58135  Biso   1.000  He
  Ne46     1.0000 0.97564  0.18375  0.56988  Biso   1.000  Ne
  Ne47     1.0000 0.77410  0.84399  0.88935  Biso   1.000  Ne
  He47     1.0000 0.74543  0.82879  0.89448  Biso   1.000  He
  He48     1.0000 0.73872  0.83154  0.92453  Biso   1.000  He
  Ne48     1.0000 0.71141  0.81726  0.93258  Biso   1.000  Ne
  Ne49     1.0000 0.16954  0.57157  0.37317  Biso   1.000  Ne
  He49     1.0000 0.14880  0.55055  0.38863  Biso   1.000  He
  He50     1.0000 0.12063  0.56685  0.39403  Biso   1.000  He
  Ne50     1.0000 0.09952  0.54603  0.41189  Biso   1.000  Ne
  Ne51     1.0000 0.12108  0.31342  0.59213  Biso   1.000  Ne
  He51     1.0000 0.13085  0.30766  0.62511  Biso   1.000  He
  He52     1.0000 0.11410  0.32666  0.64598  Biso   1.000  He
  Ne52     1.0000 0.12547  0.32113  0.67806  Biso   1.000  Ne
  Ne53     1.0000 0.26429  0.87826  0.45273  Biso   1.000  Ne
  He53     1.0000 0.25133  0.89490  0.42738  Biso   1.000  He
  He54     1.0000 0.25805  0.87858  0.40068  Biso   1.000  He
  Ne54     1.0000 0.24888  0.89750  0.37479  Biso   1.000  Ne
  Ne55     1.0000 0.83573  0.37755  0.43753  Biso   1.000  Ne
  He55     1.0000 0.85059  0.39238  0.41312  Biso   1.000  He
  He56     1.0000 0.88276  0.39831  0.41780  Biso   1.000  He
  Ne56     1.0000 0.89547  0.41359  0.39135  Biso   1.000  Ne
  Ne57     1.0000 0.55329  0.89257  0.59232  Biso   1.000  Ne
  He57     1.0000 0.55527  0.92607  0.59623  Biso   1.000  He
  He58     1.0000 0.58106  0.93797  0.61081  Biso   1.000  He
  Ne58     1.0000 0.57543  0.97045  0.61375  Biso   1.000  Ne
  Ne59     1.0000 0.96189  0.90377  0.94442  Biso   1.000  Ne
  He59     1.0000 0.93850  0.90906  0.92118  Biso   1.000  He
  He60     1.0000 0.93124  0.88124  0.90377  Biso   1.000  He
  Ne60     1.0000 0.90881  0.88474  0.87795  Biso   1.000  Ne
  Ne61     1.0000 0.68542  0.89607  0.36995  Biso   1.000  Ne
  He61     1.0000 0.66524  0.89808  0.34376  Biso   1.000  He
  He62     1.0000 0.63473  0.89162  0.34986  Biso   1.000  He
  Ne62     1.0000 0.61361  0.89720  0.32711  Biso   1.000  Ne
  Ne63     1.0000 0.14499  0.64536  0.44624  Biso   1.000  Ne
  He63     1.0000 0.12900  0.67215  0.44511  Biso   1.000  He
  He64     1.0000 0.13148  0.69245  0.46941  Biso   1.000  He
  Ne64     1.0000 0.10657  0.71712  0.46970  Biso   1.000  Ne
  Ne65     1.0000 0.45515  0.66794  0.36649  Biso   1.000  Ne
  He65     1.0000 0.45864  0.64517  0.38925  Biso   1.000  He
  He66     1.0000 0.48030  0.62079  0.38071  Biso   1.000  He
  Ne66     1.0000 0.48799  0.59683  0.40132  Biso   1.000  Ne
  Ne67     1.0000 0.11226  0.96686  0.99990  Biso   1.000  Ne
  He67     1.0000 0.11806  0.95571  0.96840  Biso   1.000  He
  He68     1.0000 0.11763  0.92247  0.96409  Biso   1.000  He
  Ne68     1.0000 0.12417  0.91291  0.93398  Biso   1.000  Ne
  Ne69     1.0000 0.59611  0.97800  0.53379  Biso   1.000  Ne
  He69     1.0000 0.57344  0.00054  0.53931  Biso   1.000  He
  He70     1.0000 0.55675  0.01209  0.51028  Biso   1.000  He
  Ne70     1.0000 0.53785  0.03838  0.51446  Biso   1.000  Ne
  Ne71     1.0000 0.86617  0.81325  0.95107  Biso   1.000  Ne
  He71     1.0000 0.86063  0.84688  0.95499  Biso   1.000  He
  He72     1.0000 0.83829  0.85973  0.93366  Biso   1.000  He
  Ne72     1.0000 0.83127  0.89232  0.94105  Biso   1.000  Ne
  Ne73     1.0000 0.19599  0.89284  0.21834  Biso   1.000  Ne
  He73     1.0000 0.17109  0.90956  0.23033  Biso   1.000  He
  He74     1.0000 0.14247  0.90542  0.21438  Biso   1.000  He
  Ne74     1.0000 0.11748  0.91809  0.23004  Biso   1.000  Ne
  Ne75     1.0000 0.12434  0.77359  0.14729  Biso   1.000  Ne
  He75     1.0000 0.12375  0.80457  0.13825  Biso   1.000  He
  He76     1.0000 0.12125  0.80552  0.10430  Biso   1.000  He
  Ne76     1.0000 0.12604  0.83312  0.09177  Biso   1.000  Ne
  Ne77     1.0000 0.61245  0.42646  0.08161  Biso   1.000  Ne
  He77     1.0000 0.60442  0.45025  0.06063  Biso   1.000  He
  He78     1.0000 0.57428  0.45027  0.04957  Biso   1.000  He
  Ne78     1.0000 0.56475  0.48117  0.03595  Biso   1.000  Ne
  Ne79     1.0000 0.43644  0.74472  0.45164  Biso   1.000  Ne
  He79     1.0000 0.42300  0.71679  0.46209  Biso   1.000  He
  He80     1.0000 0.39412  0.70765  0.44632  Biso   1.000  He
  Ne80     1.0000 0.37899  0.68380  0.45901  Biso   1.000  Ne
  Ne81     1.0000 0.52693  0.39312  0.00447  Biso   1.000  Ne
  He81     1.0000 0.50793  0.41072  0.98452  Biso   1.000  He
  He82     1.0000 0.47900  0.41164  0.99623  Biso   1.000  He
  Ne82     1.0000 0.45824  0.43302  0.97840  Biso   1.000  Ne
  Ne83     1.0000 0.64486  0.88529  0.59701  Biso   1.000  Ne
  He83     1.0000 0.66600  0.87612  0.61725  Biso   1.000  He
  He84     1.0000 0.67676  0.84626  0.61064  Biso   1.000  He
  Ne84     1.0000 0.69745  0.83586  0.63399  Biso   1.000  Ne
  Ne85     1.0000 0.39110  0.56676  0.85395  Biso   1.000  Ne
  He85     1.0000 0.38552  0.57795  0.88508  Biso   1.000  He
  He86     1.0000 0.36268  0.55881  0.90500  Biso   1.000  He
  Ne86     1.0000 0.36490  0.56495  0.93628  Biso   1.000  Ne
  Ne87     1.0000 0.16663  0.07341  0.95381  Biso   1.000  Ne
  He87     1.0000 0.17075  0.09110  0.92619  Biso   1.000  He
  He88     1.0000 0.16763  0.12628  0.92963  Biso   1.000  He
  Ne88     1.0000 0.13573  0.13552  0.93233  Biso   1.000  Ne
  Ne89     1.0000 0.34492  0.88295  0.70113  Biso   1.000  Ne
  He89     1.0000 0.33035  0.86152  0.72185  Biso   1.000  He
  He90     1.0000 0.34670  0.85391  0.74966  Biso   1.000  He
  Ne90     1.0000 0.33444  0.83316  0.76807  Biso   1.000  Ne
  Ne91     1.0000 0.96761  0.35646  0.63920  Biso   1.000  Ne
  He91     1.0000 0.96659  0.37777  0.61361  Biso   1.000  He
  He92     1.0000 0.93585  0.39343  0.61213  Biso   1.000  He
  Ne92     1.0000 0.93180  0.41532  0.58684  Biso   1.000  Ne
  Ne93     1.0000 0.68983  0.55066  0.82262  Biso   1.000  Ne
  He93     1.0000 0.65886  0.55192  0.83046  Biso   1.000  He
  He94     1.0000 0.64999  0.57070  0.85676  Biso   1.000  He
  Ne94     1.0000 0.61834  0.56642  0.86163  Biso   1.000  Ne
  Ne95     1.0000 0.11113  0.37673  0.35936  Biso   1.000  Ne
  He95     1.0000 0.09801  0.37075  0.32927  Biso   1.000  He
  He96     1.0000 0.12019  0.36453  0.30566  Biso   1.000  He
  Ne96     1.0000 0.12326  0.33272  0.30467  Biso   1.000  Ne
  Ne97     1.0000 0.43480  0.88174  0.59791  Biso   1.000  Ne
  He97     1.0000 0.40340  0.87454  0.61079  Biso   1.000  He
  He98     1.0000 0.37937  0.87740  0.58775  Biso   1.000  He
  Ne98     1.0000 0.34879  0.87056  0.59938  Biso   1.000  Ne
  Ne99     1.0000 0.47432  0.92555  0.43987  Biso   1.000  Ne
  He99     1.0000 0.48485  0.90649  0.46502  Biso   1.000  He
  He100    1.0000 0.48617  0.91966  0.49604  Biso   1.000  He
  Ne100    1.0000 0.49717  0.89928  0.51716  Biso   1.000  Ne
  Ne101    1.0000 0.16279  0.57140  0.65671  Biso   1.000  Ne
  He101    1.0000 0.16941  0.60162  0.65723  Biso   1.000  He
  He102    1.0000 0.14017  0.62229  0.64835  Biso   1.000  He
  Ne102    1.0000 0.14669  0.65313  0.65230  Biso   1.000  Ne
  Ne103    1.0000 0.58331  0.04693  0.41392  Biso   1.000  Ne
  He103    1.0000 0.60177  0.07420  0.41665  Biso   1.000  He
  He104    1.0000 0.59954  0.09143  0.44643  Biso   1.000  He
  Ne104    1.0000 0.62221  0.11755  0.45069  Biso   1.000  Ne
  Ne105    1.0000 0.37419  0.78961  0.42973  Biso   1.000  Ne
  He105    1.0000 0.35919  0.81562  0.41530  Biso   1.000  He
  He106    1.0000 0.35930  0.84176  0.43446  Biso   1.000  He
  Ne106    1.0000 0.34080  0.86676  0.42436  Biso   1.000  Ne
  Ne107    1.0000 0.03467  0.93378  0.09957  Biso   1.000  Ne
  He107    1.0000 0.06561  0.92751  0.11125  Biso   1.000  He
  He108    1.0000 0.09062  0.93932  0.09621  Biso   1.000  He
  Ne108    1.0000 0.12003  0.92805  0.10842  Biso   1.000  Ne
  Ne109    1.0000 0.36085  0.15302  0.42576  Biso   1.000  Ne
  He109    1.0000 0.34362  0.13205  0.44527  Biso   1.000  He
  He110    1.0000 0.32975  0.10674  0.43111  Biso   1.000  He
  Ne110    1.0000 0.31297  0.08468  0.44863  Biso   1.000  Ne
  Ne111    1.0000 0.59090  0.53493  0.11304  Biso   1.000  Ne
  He111    1.0000 0.55875  0.53810  0.10274  Biso   1.000  He
  He112    1.0000 0.54173  0.50797  0.10728  Biso   1.000  He
  Ne112    1.0000 0.51041  0.50502  0.09370  Biso   1.000  Ne
  Ne113    1.0000 0.73325  0.34864  0.11837  Biso   1.000  Ne
  He113    1.0000 0.70983  0.33062  0.13426  Biso   1.000  He
  He114    1.0000 0.69483  0.34574  0.15717  Biso   1.000  He
  Ne114    1.0000 0.66973  0.32816  0.16800  Biso   1.000  Ne
  Ne115    1.0000 0.02717  0.46047  0.90004  Biso   1.000  Ne
  He115    1.0000 0.02153  0.47121  0.86813  Biso   1.000  He
  He116    1.0000 0.99095  0.46388  0.85619  Biso   1.000  He
  Ne116    1.0000 0.98645  0.47557  0.82169  Biso   1.000  Ne
  Ne117    1.0000 0.77189  0.91417  0.47081  Biso   1.000  Ne
  He117    1.0000 0.75320  0.90205  0.44743  Biso   1.000  He
  He118    1.0000 0.75233  0.86988  0.44562  Biso   1.000  He
  Ne118    1.0000 0.72950  0.86143  0.42247  Biso   1.000  Ne
  Ne119    1.0000 0.69427  0.55868  0.19971  Biso   1.000  Ne
  He119    1.0000 0.68055  0.55173  0.22642  Biso   1.000  He
  He120    1.0000 0.65204  0.56344  0.22548  Biso   1.000  He
  Ne120    1.0000 0.63242  0.56413  0.25398  Biso   1.000  Ne
  Ne121    1.0000 0.14149  0.13711  0.81690  Biso   1.000  Ne
  He121    1.0000 0.13162  0.10536  0.82126  Biso   1.000  He
  He122    1.0000 0.12528  0.09311  0.85019  Biso   1.000  He
  Ne122    1.0000 0.12805  0.06055  0.85093  Biso   1.000  Ne
  Ne123    1.0000 0.47941  0.03545  0.42418  Biso   1.000  Ne
  He123    1.0000 0.48850  0.05660  0.44382  Biso   1.000  He
  He124    1.0000 0.46361  0.07339  0.45651  Biso   1.000  He
  Ne124    1.0000 0.47277  0.09999  0.47269  Biso   1.000  Ne
  Ne125    1.0000 0.95252  0.58221  0.44868  Biso   1.000  Ne
  He125    1.0000 0.92201  0.59305  0.43971  Biso   1.000  He
  He126    1.0000 0.89489  0.57372  0.44945  Biso   1.000  He
  Ne126    1.0000 0.86491  0.58167  0.43964  Biso   1.000  Ne
  Ne127    1.0000 0.60144  0.70523  0.98184  Biso   1.000  Ne
  He127    1.0000 0.62549  0.69099  0.96512  Biso   1.000  He
  He128    1.0000 0.62520  0.69479  0.93042  Biso   1.000  He
  Ne128    1.0000 0.60935  0.66998  0.91456  Biso   1.000  Ne
  Ne129    1.0000 0.95407  0.22370  0.39642  Biso   1.000  Ne
  He129    1.0000 0.95306  0.19182  0.38214  Biso   1.000  He
  He130    1.0000 0.97171  0.18920  0.35820  Biso   1.000  He
  Ne130    1.0000 0.98285  0.16002  0.34864  Biso   1.000  Ne
  Ne131    1.0000 0.92631  0.63171  0.60877  Biso   1.000  Ne
  He131    1.0000 0.89601  0.64492  0.60411  Biso   1.000  He
  He132    1.0000 0.87261  0.63226  0.62432  Biso   1.000  He
  Ne132    1.0000 0.85238  0.60981  0.60773  Biso   1.000  Ne
  Ne133    1.0000 0.72554  0.31909  0.93130  Biso   1.000  Ne
  He133    1.0000 0.72086  0.28891  0.94427  Biso   1.000  He
  He134    1.0000 0.68853  0.27962  0.93826  Biso   1.000  He
  Ne134    1.0000 0.67943  0.24899  0.95091  Biso   1.000  Ne
  Ne135    1.0000 0.90658  0.08865  0.21447  Biso   1.000  Ne
  He135    1.0000 0.88088  0.10681  0.20712  Biso   1.000  He
  He136    1.0000 0.85259  0.08868  0.20985  Biso   1.000  He
  Ne136    1.0000 0.83567  0.09627  0.23810  Biso   1.000  Ne
  Ne137    1.0000 0.95564  0.42105  0.50700  Biso   1.000  Ne
  He137    1.0000 0.97647  0.43917  0.52696  Biso   1.000  He
  He138    1.0000 0.00778  0.42866  0.53107  Biso   1.000  He
  Ne138    1.0000 0.02816  0.45054  0.54773  Biso   1.000  Ne
  Ne139    1.0000 0.33529  0.94891  0.24813  Biso   1.000  Ne
  He139    1.0000 0.33373  0.92468  0.22803  Biso   1.000  He
  He140    1.0000 0.36052  0.92053  0.20675  Biso   1.000  He
  Ne140    1.0000 0.35330  0.89416  0.18836  Biso   1.000  Ne
  Ne141    1.0000 0.26837  0.88955  0.90387  Biso   1.000  Ne
  He141    1.0000 0.24346  0.86935  0.89805  Biso   1.000  He
  He142    1.0000 0.21983  0.87344  0.91905  Biso   1.000  He
  Ne142    1.0000 0.19132  0.85547  0.91176  Biso   1.000  Ne
  Ne143    1.0000 0.87997  0.11184  0.93883  Biso   1.000  Ne
  He143    1.0000 0.91256  0.10074  0.93876  Biso   1.000  He
  He144    1.0000 0.93360  0.12742  0.93792  Biso   1.000  He
  Ne144    1.0000 0.96366  0.12627  0.95046  Biso   1.000  Ne
  Ne145    1.0000 0.27905  0.70047  0.39304  Biso   1.000  Ne
  He145    1.0000 0.25913  0.72450  0.40340  Biso   1.000  He
  He146    1.0000 0.26020  0.73233  0.43461  Biso   1.000  He
  Ne146    1.0000 0.23983  0.75682  0.44281  Biso   1.000  Ne
  Ne147    1.0000 0.37831  0.87011  0.30750  Biso   1.000  Ne
  He147    1.0000 0.38879  0.88993  0.32658  Biso   1.000  He
  He148    1.0000 0.38652  0.87475  0.35424  Biso   1.000  He
  Ne148    1.0000 0.40241  0.88610  0.38205  Biso   1.000  Ne
  Ne149    1.0000 0.95394  0.55895  0.67283  Biso   1.000  Ne
  He149    1.0000 0.92465  0.55889  0.65811  Biso   1.000  He
  He150    1.0000 0.90192  0.54478  0.67665  Biso   1.000  He
  Ne150    1.0000 0.86965  0.54471  0.66392  Biso   1.000  Ne
  Ne151    1.0000 0.43637  0.62401  0.15318  Biso   1.000  Ne
  He151    1.0000 0.45128  0.60039  0.13211  Biso   1.000  He
  He152    1.0000 0.44981  0.60592  0.10140  Biso   1.000  He
  Ne152    1.0000 0.46669  0.58151  0.08663  Biso   1.000  Ne
  Ne153    1.0000 0.57523  0.41219  0.91283  Biso   1.000  Ne
  He153    1.0000 0.59059  0.41407  0.94083  Biso   1.000  He
  He154    1.0000 0.62275  0.41565  0.94025  Biso   1.000  He
  Ne154    1.0000 0.63973  0.42252  0.97016  Biso   1.000  Ne
  Ne155    1.0000 0.43640  0.78798  0.66410  Biso   1.000  Ne
  He155    1.0000 0.43888  0.80857  0.69102  Biso   1.000  He
  He156    1.0000 0.42079  0.83924  0.69064  Biso   1.000  He
  Ne156    1.0000 0.42551  0.86062  0.71577  Biso   1.000  Ne
  Ne157    1.0000 0.36426  0.40329  0.87305  Biso   1.000  Ne
  He157    1.0000 0.36211  0.38634  0.90164  Biso   1.000  He
  He158    1.0000 0.33836  0.36438  0.90137  Biso   1.000  He
  Ne158    1.0000 0.34233  0.34669  0.93020  Biso   1.000  Ne
  Ne159    1.0000 0.89887  0.27531  0.44476  Biso   1.000  Ne
  He159    1.0000 0.90360  0.30516  0.45696  Biso   1.000  He
  He160    1.0000 0.92835  0.32131  0.44172  Biso   1.000  He
  Ne160    1.0000 0.93053  0.35069  0.45627  Biso   1.000  Ne
