data_image0
_cell_length_a       46.8591
_cell_length_b       46.5841
_cell_length_c       46.5441
_cell_angle_alpha    90
_cell_angle_beta     90
_cell_angle_gamma    90

_symmetry_space_group_name_H-M    "P 1"
_symmetry_int_tables_number       1

loop_
  _symmetry_equiv_pos_as_xyz
  'x, y, z'

loop_
  _atom_site_label
  _atom_site_occupancy
  _atom_site_fract_x
  _atom_site_fract_y
  _atom_site_fract_z
  _atom_site_thermal_displace_type
  _atom_site_B_iso_or_equiv
  _atom_site_type_symbol
  Ne1      1.0000 0.07846  0.17638  0.91425  Biso   1.000  Ne
  He1      1.0000 0.08726  0.15238  0.93715  Biso   1.000  He
  He2      1.0000 0.09726  0.12435  0.92321  Biso   1.000  He
  Ne2      1.0000 0.10978  0.10192  0.94284  Biso   1.000  Ne
  Ne3      1.0000 0.58931  0.90902  0.64348  Biso   1.000  Ne
  He3      1.0000 0.57301  0.89419  0.61683  Biso   1.000  He
  He4      1.0000 0.58035  0.90672  0.58841  Biso   1.000  He
  Ne4      1.0000 0.57096  0.88627  0.56246  Biso   1.000  Ne
  Ne5      1.0000 0.88020  0.03484  0.21243  Biso   1.000  Ne
  He5      1.0000 0.89421  0.05700  0.19591  Biso   1.000  He
  He6      1.0000 0.91783  0.04431  0.17642  Biso   1.000  He
  Ne6      1.0000 0.93475  0.06596  0.15835  Biso   1.000  Ne
  Ne7      1.0000 0.94045  0.16259  0.10830  Biso   1.000  Ne
  He7      1.0000 0.90993  0.17396  0.10925  Biso   1.000  He
  He8      1.0000 0.88760  0.14966  0.11202  Biso   1.000  He
  Ne8      1.0000 0.85484  0.15710  0.10425  Biso   1.000  Ne
  Ne9      1.0000 0.08258  0.90543  0.88276  Biso   1.000  Ne
  He9      1.0000 0.09239  0.88919  0.85641  Biso   1.000  He
  He10     1.0000 0.08135  0.90090  0.82951  Biso   1.000  He
  Ne10     1.0000 0.09003  0.88258  0.80437  Biso   1.000  Ne
  Ne11     1.0000 0.89177  0.21107  0.20186  Biso   1.000  Ne
  He11     1.0000 0.86510  0.19117  0.20553  Biso   1.000  He
  He12     1.0000 0.86898  0.16153  0.19164  Biso   1.000  He
  Ne12     1.0000 0.84186  0.14391  0.19379  Biso   1.000  Ne
  Ne13     1.0000 0.06262  0.37355  0.60799  Biso   1.000  Ne
  He13     1.0000 0.06540  0.39961  0.58623  Biso   1.000  He
  He14     1.0000 0.06040  0.43101  0.60136  Biso   1.000  He
  Ne14     1.0000 0.07707  0.45404  0.58381  Biso   1.000  Ne
  Ne15     1.0000 0.58870  0.93560  0.45016  Biso   1.000  Ne
  He15     1.0000 0.56047  0.93136  0.46725  Biso   1.000  He
  He16     1.0000 0.55069  0.89845  0.47108  Biso   1.000  He
  Ne16     1.0000 0.52081  0.89371  0.48252  Biso   1.000  Ne
  Ne17     1.0000 0.10479  0.01321  0.98373  Biso   1.000  Ne
  He17     1.0000 0.08304  0.02207  0.95976  Biso   1.000  He
  He18     1.0000 0.05080  0.01808  0.96655  Biso   1.000  He
  Ne18     1.0000 0.02917  0.03096  0.94527  Biso   1.000  Ne
  Ne19     1.0000 0.32785  0.10140  0.59026  Biso   1.000  Ne
  He19     1.0000 0.34033  0.07866  0.60703  Biso   1.000  He
  He20     1.0000 0.37343  0.07152  0.59659  Biso   1.000  He
  Ne20     1.0000 0.39137  0.05159  0.61901  Biso   1.000  Ne
  Ne21     1.0000 0.81818  0.07175  0.92510  Biso   1.000  Ne
  He21     1.0000 0.84499  0.08052  0.94483  Biso   1.000  He
  He22     1.0000 0.87276  0.06712  0.93591  Biso   1.000  He
  Ne22     1.0000 0.89898  0.08034  0.95324  Biso   1.000  Ne
  Ne23     1.0000 0.70078  0.36034  0.80868  Biso   1.000  Ne
  He23     1.0000 0.73216  0.36239  0.81804  Biso   1.000  He
  He24     1.0000 0.75684  0.34902  0.80095  Biso   1.000  He
  Ne24     1.0000 0.78821  0.35279  0.81414  Biso   1.000  Ne
  Ne25     1.0000 0.95412  0.58586  0.56398  Biso   1.000  Ne
  He25     1.0000 0.94006  0.56765  0.58607  Biso   1.000  He
  He26     1.0000 0.96037  0.56045  0.61074  Biso   1.000  He
  Ne26     1.0000 0.94868  0.54801  0.64027  Biso   1.000  Ne
  Ne27     1.0000 0.91736  0.65277  0.65116  Biso   1.000  Ne
  He27     1.0000 0.90926  0.66212  0.68284  Biso   1.000  He
  He28     1.0000 0.91202  0.63647  0.70356  Biso   1.000  He
  Ne28     1.0000 0.91065  0.64513  0.73330  Biso   1.000  Ne
  Ne29     1.0000 0.51210  0.31392  0.30820  Biso   1.000  Ne
  He29     1.0000 0.51788  0.33927  0.32739  Biso   1.000  He
  He30     1.0000 0.51438  0.37084  0.31175  Biso   1.000  He
  Ne30     1.0000 0.51806  0.39909  0.33024  Biso   1.000  Ne
  Ne31     1.0000 0.36861  0.19606  0.20434  Biso   1.000  Ne
  He31     1.0000 0.39341  0.21292  0.19067  Biso   1.000  He
  He32     1.0000 0.42153  0.19603  0.18404  Biso   1.000  He
  Ne32     1.0000 0.44094  0.21815  0.16869  Biso   1.000  Ne
  Ne33     1.0000 0.67774  0.14011  0.60934  Biso   1.000  Ne
  He33     1.0000 0.68086  0.10899  0.59561  Biso   1.000  He
  He34     1.0000 0.66066  0.08640  0.60481  Biso   1.000  He
  Ne34     1.0000 0.66712  0.05731  0.59008  Biso   1.000  Ne
  Ne35     1.0000 0.60235  0.83269  0.78176  Biso   1.000  Ne
  He35     1.0000 0.60633  0.81310  0.75649  Biso   1.000  He
  He36     1.0000 0.60067  0.83085  0.73047  Biso   1.000  He
  Ne36     1.0000 0.60519  0.81927  0.70049  Biso   1.000  Ne
  Ne37     1.0000 0.93364  0.20493  0.93091  Biso   1.000  Ne
  He37     1.0000 0.91625  0.18461  0.91170  Biso   1.000  He
  He38     1.0000 0.91877  0.18806  0.87815  Biso   1.000  He
  Ne38     1.0000 0.90153  0.16326  0.86389  Biso   1.000  Ne
  Ne39     1.0000 0.81898  0.37665  0.68308  Biso   1.000  Ne
  He39     1.0000 0.79937  0.36258  0.66263  Biso   1.000  He
  He40     1.0000 0.81099  0.34384  0.64268  Biso   1.000  He
  Ne40     1.0000 0.79055  0.33020  0.62066  Biso   1.000  Ne
  Ne41     1.0000 0.41198  0.39365  0.78946  Biso   1.000  Ne
  He41     1.0000 0.42008  0.37345  0.81296  Biso   1.000  He
  He42     1.0000 0.43181  0.38701  0.84071  Biso   1.000  He
  Ne42     1.0000 0.43902  0.36491  0.86393  Biso   1.000  Ne
  Ne43     1.0000 0.78116  0.78398  0.65953  Biso   1.000  Ne
  He43     1.0000 0.78965  0.75877  0.67572  Biso   1.000  He
  He44     1.0000 0.81454  0.76524  0.69893  Biso   1.000  He
  Ne44     1.0000 0.82696  0.73687  0.71156  Biso   1.000  Ne
  Ne45     1.0000 0.62132  0.56629  0.89011  Biso   1.000  Ne
  He45     1.0000 0.62377  0.57773  0.85987  Biso   1.000  He
  He46     1.0000 0.59621  0.56781  0.84399  Biso   1.000  He
  Ne46     1.0000 0.59439  0.57271  0.81149  Biso   1.000  Ne
  Ne47     1.0000 0.21206  0.80753  0.08658  Biso   1.000  Ne
  He47     1.0000 0.19274  0.83191  0.09293  Biso   1.000  He
  He48     1.0000 0.20601  0.86121  0.09262  Biso   1.000  He
  Ne48     1.0000 0.18542  0.88500  0.09235  Biso   1.000  Ne
  Ne49     1.0000 0.14836  0.89637  0.93080  Biso   1.000  Ne
  He49     1.0000 0.13723  0.86537  0.93558  Biso   1.000  He
  He50     1.0000 0.15538  0.84048  0.92174  Biso   1.000  He
  Ne50     1.0000 0.13832  0.81006  0.92706  Biso   1.000  Ne
  Ne51     1.0000 0.43921  0.52182  0.98915  Biso   1.000  Ne
  He51     1.0000 0.47029  0.52181  0.98980  Biso   1.000  He
  He52     1.0000 0.48368  0.55114  0.99849  Biso   1.000  He
  Ne52     1.0000 0.51899  0.55147  0.99867  Biso   1.000  Ne
  Ne53     1.0000 0.55241  0.06427  0.55788  Biso   1.000  Ne
  He53     1.0000 0.55591  0.04015  0.53385  Biso   1.000  He
  He54     1.0000 0.58082  0.02190  0.53707  Biso   1.000  He
  Ne54     1.0000 0.58897  0.00348  0.51047  Biso   1.000  Ne
  Ne55     1.0000 0.45391  0.02391  0.57306  Biso   1.000  Ne
  He55     1.0000 0.48480  0.02042  0.58291  Biso   1.000  He
  He56     1.0000 0.49493  0.98833  0.58740  Biso   1.000  He
  Ne56     1.0000 0.52518  0.98090  0.59911  Biso   1.000  Ne
  Ne57     1.0000 0.72376  0.09556  0.74106  Biso   1.000  Ne
  He57     1.0000 0.69654  0.11165  0.75166  Biso   1.000  He
  He58     1.0000 0.67539  0.09636  0.77320  Biso   1.000  He
  Ne58     1.0000 0.65130  0.11798  0.78682  Biso   1.000  Ne
  Ne59     1.0000 0.17461  0.58247  0.67552  Biso   1.000  Ne
  He59     1.0000 0.14062  0.57725  0.67995  Biso   1.000  He
  He60     1.0000 0.13328  0.56292  0.70837  Biso   1.000  He
  Ne60     1.0000 0.10108  0.56596  0.71803  Biso   1.000  Ne
  Ne61     1.0000 0.40950  0.71556  0.32672  Biso   1.000  Ne
  He61     1.0000 0.41304  0.73939  0.30588  Biso   1.000  He
  He62     1.0000 0.44188  0.74210  0.29582  Biso   1.000  He
  Ne62     1.0000 0.44647  0.76818  0.27404  Biso   1.000  Ne
  Ne63     1.0000 0.15653  0.39371  0.41981  Biso   1.000  Ne
  He63     1.0000 0.14370  0.39166  0.44884  Biso   1.000  He
  He64     1.0000 0.12108  0.41506  0.45302  Biso   1.000  He
  Ne64     1.0000 0.10066  0.40982  0.47801  Biso   1.000  Ne
  Ne65     1.0000 0.27153  0.30306  0.45529  Biso   1.000  Ne
  He65     1.0000 0.24830  0.31781  0.43674  Biso   1.000  He
  He66     1.0000 0.26037  0.33589  0.41120  Biso   1.000  He
  Ne66     1.0000 0.23864  0.35433  0.39372  Biso   1.000  Ne
  Ne67     1.0000 0.93528  0.54670  0.44667  Biso   1.000  Ne
  He67     1.0000 0.90245  0.54567  0.45245  Biso   1.000  He
  He68     1.0000 0.88081  0.56412  0.43480  Biso   1.000  He
  Ne68     1.0000 0.84942  0.55891  0.44324  Biso   1.000  Ne
  Ne69     1.0000 0.78162  0.58388  0.76888  Biso   1.000  Ne
  He69     1.0000 0.79563  0.55316  0.77247  Biso   1.000  He
  He70     1.0000 0.82549  0.55062  0.78577  Biso   1.000  He
  Ne70     1.0000 0.83615  0.52053  0.79052  Biso   1.000  Ne
  Ne71     1.0000 0.12227  0.88312  0.15777  Biso   1.000  Ne
  He71     1.0000 0.10896  0.85921  0.13939  Biso   1.000  He
  He72     1.0000 0.10328  0.86776  0.10912  Biso   1.000  He
  Ne72     1.0000 0.08842  0.84480  0.08819  Biso   1.000  Ne
  Ne73     1.0000 0.59742  0.15945  0.71034  Biso   1.000  Ne
  He73     1.0000 0.57591  0.14050  0.72765  Biso   1.000  He
  He74     1.0000 0.57068  0.14483  0.76014  Biso   1.000  He
  Ne74     1.0000 0.54946  0.12375  0.77696  Biso   1.000  Ne
  Ne75     1.0000 0.61194  0.39319  0.83702  Biso   1.000  Ne
  He75     1.0000 0.60839  0.36247  0.82633  Biso   1.000  He
  He76     1.0000 0.60339  0.35594  0.79423  Biso   1.000  He
  Ne76     1.0000 0.59300  0.32328  0.78546  Biso   1.000  Ne
  Ne77     1.0000 0.33035  0.69941  0.16605  Biso   1.000  Ne
  He77     1.0000 0.30388  0.68721  0.18095  Biso   1.000  He
  He78     1.0000 0.28016  0.67203  0.16302  Biso   1.000  He
  Ne78     1.0000 0.26369  0.64841  0.18104  Biso   1.000  Ne
  Ne79     1.0000 0.45228  0.29908  0.09385  Biso   1.000  Ne
  He79     1.0000 0.42808  0.27720  0.09770  Biso   1.000  He
  He80     1.0000 0.39776  0.28910  0.09069  Biso   1.000  He
  Ne80     1.0000 0.37298  0.26736  0.09079  Biso   1.000  Ne
  Ne81     1.0000 0.26590  0.65017  0.93730  Biso   1.000  Ne
  He81     1.0000 0.23055  0.65572  0.93932  Biso   1.000  He
  He82     1.0000 0.21391  0.63251  0.95765  Biso   1.000  He
  Ne82     1.0000 0.18228  0.63239  0.95895  Biso   1.000  Ne
  Ne83     1.0000 0.68364  0.78725  0.44118  Biso   1.000  Ne
  He83     1.0000 0.65657  0.77352  0.45134  Biso   1.000  He
  He84     1.0000 0.63088  0.79561  0.44681  Biso   1.000  He
  Ne84     1.0000 0.60113  0.78348  0.45495  Biso   1.000  Ne
  Ne85     1.0000 0.09192  0.29205  0.29571  Biso   1.000  Ne
  He85     1.0000 0.07164  0.31865  0.29523  Biso   1.000  He
  He86     1.0000 0.08708  0.34743  0.28949  Biso   1.000  He
  Ne86     1.0000 0.06587  0.37398  0.28719  Biso   1.000  Ne
  Ne87     1.0000 0.97991  0.92496  0.00867  Biso   1.000  Ne
  He87     1.0000 0.96224  0.94249  0.98327  Biso   1.000  He
  He88     1.0000 0.97109  0.93903  0.94995  Biso   1.000  He
  Ne88     1.0000 0.96554  0.96336  0.93008  Biso   1.000  Ne
  Ne89     1.0000 0.25959  0.14519  0.59567  Biso   1.000  Ne
  He89     1.0000 0.27447  0.16808  0.61477  Biso   1.000  He
  He90     1.0000 0.26989  0.16274  0.64579  Biso   1.000  He
  Ne90     1.0000 0.28878  0.17868  0.66722  Biso   1.000  Ne
  Ne91     1.0000 0.37103  0.38903  0.92390  Biso   1.000  Ne
  He91     1.0000 0.34673  0.38750  0.94269  Biso   1.000  He
  He92     1.0000 0.31788  0.38709  0.92846  Biso   1.000  He
  Ne92     1.0000 0.29105  0.38315  0.94952  Biso   1.000  Ne
  Ne93     1.0000 0.11083  0.24988  0.69704  Biso   1.000  Ne
  He93     1.0000 0.09493  0.26427  0.67306  Biso   1.000  He
  He94     1.0000 0.11436  0.26980  0.64663  Biso   1.000  He
  Ne94     1.0000 0.09853  0.28501  0.62160  Biso   1.000  Ne
  Ne95     1.0000 0.66672  0.22807  0.37895  Biso   1.000  Ne
  He95     1.0000 0.64075  0.24857  0.37925  Biso   1.000  He
  He96     1.0000 0.62677  0.25049  0.40996  Biso   1.000  He
  Ne96     1.0000 0.59650  0.26074  0.40608  Biso   1.000  Ne
  Ne97     1.0000 0.10476  0.53553  0.60677  Biso   1.000  Ne
  He97     1.0000 0.10660  0.56593  0.58986  Biso   1.000  He
  He98     1.0000 0.08299  0.58791  0.59946  Biso   1.000  He
  Ne98     1.0000 0.08782  0.61561  0.58403  Biso   1.000  Ne
  Ne99     1.0000 0.39650  0.57465  0.82907  Biso   1.000  Ne
  He99     1.0000 0.41133  0.57528  0.85711  Biso   1.000  He
  He100    1.0000 0.41565  0.54416  0.87007  Biso   1.000  He
  Ne100    1.0000 0.42777  0.54172  0.90002  Biso   1.000  Ne
  Ne101    1.0000 0.09118  0.71221  0.38076  Biso   1.000  Ne
  He101    1.0000 0.11373  0.69496  0.39997  Biso   1.000  He
  He102    1.0000 0.09449  0.67360  0.41786  Biso   1.000  He
  Ne102    1.0000 0.11182  0.65111  0.43391  Biso   1.000  Ne
  Ne103    1.0000 0.80712  0.56534  0.63155  Biso   1.000  Ne
  He103    1.0000 0.82613  0.57714  0.60710  Biso   1.000  He
  He104    1.0000 0.84984  0.59841  0.62024  Biso   1.000  He
  Ne104    1.0000 0.86868  0.61045  0.59750  Biso   1.000  Ne
  Ne105    1.0000 0.39735  0.91219  0.57807  Biso   1.000  Ne
  He105    1.0000 0.42377  0.93207  0.57431  Biso   1.000  He
  He106    1.0000 0.43621  0.93458  0.54248  Biso   1.000  He
  Ne106    1.0000 0.43065  0.96091  0.52675  Biso   1.000  Ne
  Ne107    1.0000 0.62258  0.08007  0.70655  Biso   1.000  Ne
  He107    1.0000 0.60901  0.08252  0.67374  Biso   1.000  He
  He108    1.0000 0.58174  0.06349  0.66770  Biso   1.000  He
  Ne108    1.0000 0.56778  0.06914  0.63850  Biso   1.000  Ne
  Ne109    1.0000 0.65628  0.83170  0.61186  Biso   1.000  Ne
  He109    1.0000 0.66556  0.86376  0.61428  Biso   1.000  He
  He110    1.0000 0.69881  0.86709  0.60789  Biso   1.000  He
  Ne110    1.0000 0.71052  0.89770  0.61052  Biso   1.000  Ne
  Ne111    1.0000 0.82990  0.30809  0.40489  Biso   1.000  Ne
  He111    1.0000 0.79902  0.30303  0.41834  Biso   1.000  He
  He112    1.0000 0.78955  0.27102  0.41928  Biso   1.000  He
  Ne112    1.0000 0.75736  0.26603  0.43152  Biso   1.000  Ne
  Ne113    1.0000 0.43058  0.54683  0.14997  Biso   1.000  Ne
  He113    1.0000 0.43226  0.57167  0.17217  Biso   1.000  He
  He114    1.0000 0.41650  0.56660  0.20057  Biso   1.000  He
  Ne114    1.0000 0.41407  0.59523  0.21773  Biso   1.000  Ne
  Ne115    1.0000 0.34681  0.41752  0.72738  Biso   1.000  Ne
  He115    1.0000 0.33516  0.40482  0.75659  Biso   1.000  He
  He116    1.0000 0.31304  0.38064  0.75348  Biso   1.000  He
  Ne116    1.0000 0.29927  0.37051  0.78093  Biso   1.000  Ne
  Ne117    1.0000 0.10078  0.25078  0.44877  Biso   1.000  Ne
  He117    1.0000 0.09505  0.28317  0.45580  Biso   1.000  He
  He118    1.0000 0.08590  0.30069  0.42861  Biso   1.000  He
  Ne118    1.0000 0.06965  0.32839  0.43674  Biso   1.000  Ne
  Ne119    1.0000 0.89823  0.30212  0.60884  Biso   1.000  Ne
  He119    1.0000 0.90882  0.26952  0.61909  Biso   1.000  He
  He120    1.0000 0.92080  0.27083  0.65020  Biso   1.000  He
  Ne120    1.0000 0.90595  0.25170  0.67265  Biso   1.000  Ne
  Ne121    1.0000 0.40423  0.76158  0.61771  Biso   1.000  Ne
  He121    1.0000 0.42074  0.78567  0.63230  Biso   1.000  He
  He122    1.0000 0.40825  0.81474  0.62993  Biso   1.000  He
  Ne122    1.0000 0.42511  0.83959  0.64428  Biso   1.000  Ne
  Ne123    1.0000 0.32450  0.89368  0.65330  Biso   1.000  Ne
  He123    1.0000 0.29652  0.90026  0.67031  Biso   1.000  He
  He124    1.0000 0.27302  0.90824  0.64699  Biso   1.000  He
  Ne124    1.0000 0.24313  0.92053  0.66096  Biso   1.000  Ne
  Ne125    1.0000 0.11020  0.06035  0.09475  Biso   1.000  Ne
  He125    1.0000 0.13420  0.06824  0.11715  Biso   1.000  He
  He126    1.0000 0.16123  0.04976  0.11600  Biso   1.000  He
  Ne126    1.0000 0.18704  0.06135  0.13116  Biso   1.000  Ne
  Ne127    1.0000 0.40351  0.90899  0.67049  Biso   1.000  Ne
  He127    1.0000 0.39738  0.90059  0.70041  Biso   1.000  He
  He128    1.0000 0.42420  0.89548  0.71941  Biso   1.000  He
  Ne128    1.0000 0.41859  0.88629  0.74882  Biso   1.000  Ne
  Ne129    1.0000 0.70890  0.03195  0.85056  Biso   1.000  Ne
  He129    1.0000 0.67580  0.02692  0.85414  Biso   1.000  He
  He130    1.0000 0.65463  0.02205  0.82755  Biso   1.000  He
  Ne130    1.0000 0.62478  0.01923  0.83578  Biso   1.000  Ne
  Ne131    1.0000 0.58545  0.60737  0.15071  Biso   1.000  Ne
  He131    1.0000 0.59811  0.63898  0.15214  Biso   1.000  He
  He132    1.0000 0.60827  0.65131  0.12414  Biso   1.000  He
  Ne132    1.0000 0.61050  0.68365  0.12552  Biso   1.000  Ne
  Ne133    1.0000 0.60717  0.18775  0.12607  Biso   1.000  Ne
  He133    1.0000 0.62840  0.21343  0.11901  Biso   1.000  He
  He134    1.0000 0.63584  0.21155  0.08821  Biso   1.000  He
  Ne134    1.0000 0.65031  0.23589  0.07299  Biso   1.000  Ne
  Ne135    1.0000 0.91860  0.84010  0.16984  Biso   1.000  Ne
  He135    1.0000 0.94219  0.82082  0.15086  Biso   1.000  He
  He136    1.0000 0.92843  0.80931  0.12015  Biso   1.000  He
  Ne136    1.0000 0.95151  0.78731  0.11006  Biso   1.000  Ne
  Ne137    1.0000 0.15710  0.78945  0.18613  Biso   1.000  Ne
  He137    1.0000 0.14300  0.75907  0.18690  Biso   1.000  He
  He138    1.0000 0.11213  0.76039  0.19609  Biso   1.000  He
  Ne138    1.0000 0.09480  0.73417  0.18896  Biso   1.000  Ne
  Ne139    1.0000 0.47491  0.74632  0.10330  Biso   1.000  Ne
  He139    1.0000 0.50192  0.75648  0.08659  Biso   1.000  He
  He140    1.0000 0.50457  0.74851  0.05281  Biso   1.000  He
  Ne140    1.0000 0.53284  0.75575  0.03866  Biso   1.000  Ne
  Ne141    1.0000 0.87274  0.24224  0.41758  Biso   1.000  Ne
  He141    1.0000 0.89067  0.26149  0.43655  Biso   1.000  He
  He142    1.0000 0.92256  0.26994  0.42871  Biso   1.000  He
  Ne142    1.0000 0.92978  0.30054  0.44121  Biso   1.000  Ne
  Ne143    1.0000 0.29178  0.30161  0.16866  Biso   1.000  Ne
  He143    1.0000 0.28542  0.26883  0.16604  Biso   1.000  He
  He144    1.0000 0.26609  0.25562  0.19031  Biso   1.000  He
  Ne144    1.0000 0.28280  0.24104  0.21743  Biso   1.000  Ne
  Ne145    1.0000 0.15458  0.90452  0.28686  Biso   1.000  Ne
  He145    1.0000 0.13605  0.89519  0.25866  Biso   1.000  He
  He146    1.0000 0.14426  0.86396  0.24813  Biso   1.000  He
  Ne146    1.0000 0.17310  0.86248  0.23117  Biso   1.000  Ne
  Ne147    1.0000 0.74763  0.67343  0.45906  Biso   1.000  Ne
  He147    1.0000 0.76368  0.69910  0.44477  Biso   1.000  He
  He148    1.0000 0.76120  0.70137  0.41167  Biso   1.000  He
  Ne148    1.0000 0.77672  0.72406  0.39309  Biso   1.000  Ne
  Ne149    1.0000 0.74171  0.65873  0.91807  Biso   1.000  Ne
  He149    1.0000 0.74665  0.63096  0.93789  Biso   1.000  He
  He150    1.0000 0.74220  0.60156  0.92498  Biso   1.000  He
  Ne150    1.0000 0.74583  0.57776  0.94783  Biso   1.000  Ne
  Ne151    1.0000 0.10418  0.17251  0.10303  Biso   1.000  Ne
  He151    1.0000 0.12001  0.15385  0.12631  Biso   1.000  He
  He152    1.0000 0.11288  0.16399  0.15593  Biso   1.000  He
  Ne152    1.0000 0.12345  0.14365  0.17979  Biso   1.000  Ne
  Ne153    1.0000 0.46345  0.86687  0.42855  Biso   1.000  Ne
  He153    1.0000 0.43659  0.85416  0.42214  Biso   1.000  He
  He154    1.0000 0.41060  0.86322  0.43654  Biso   1.000  He
  Ne154    1.0000 0.38266  0.85009  0.42704  Biso   1.000  Ne
  Ne155    1.0000 0.12698  0.72060  0.30489  Biso   1.000  Ne
  He155    1.0000 0.12730  0.71215  0.27319  Biso   1.000  He
  He156    1.0000 0.10707  0.68736  0.26612  Biso   1.000  He
  Ne156    1.0000 0.11161  0.67541  0.23661  Biso   1.000  Ne
  Ne157    1.0000 0.67319  0.55106  0.15075  Biso   1.000  Ne
  He157    1.0000 0.65978  0.55427  0.12069  Biso   1.000  He
  He158    1.0000 0.62912  0.54709  0.12035  Biso   1.000  He
  Ne158    1.0000 0.61820  0.55219  0.08998  Biso   1.000  Ne
  Ne159    1.0000 0.26375  0.16741  0.14439  Biso   1.000  Ne
  He159    1.0000 0.27871  0.18852  0.12134  Biso   1.000  He
  He160    1.0000 0.31007  0.18976  0.12392  Biso   1.000  He
  Ne160    1.0000 0.32614  0.21008  0.10336  Biso   1.000  Ne
  Ne161    1.0000 0.25331  0.89928  0.19700  Biso   1.000  Ne
  He161    1.0000 0.27632  0.91051  0.17554  Biso   1.000  He
  He162    1.0000 0.30233  0.92317  0.19042  Biso   1.000  He
  Ne162    1.0000 0.32541  0.93653  0.16924  Biso   1.000  Ne
  Ne163    1.0000 0.31347  0.59445  0.09596  Biso   1.000  Ne
  He163    1.0000 0.33406  0.57603  0.11555  Biso   1.000  He
  He164    1.0000 0.32283  0.57115  0.14683  Biso   1.000  He
  Ne164    1.0000 0.33948  0.55104  0.16799  Biso   1.000  Ne
  Ne165    1.0000 0.45715  0.51468  0.07016  Biso   1.000  Ne
  He165    1.0000 0.48362  0.53285  0.07978  Biso   1.000  He
  He166    1.0000 0.50698  0.51409  0.09467  Biso   1.000  He
  Ne166    1.0000 0.53177  0.53205  0.10408  Biso   1.000  Ne
  Ne167    1.0000 0.44343  0.07080  0.43388  Biso   1.000  Ne
  He167    1.0000 0.43417  0.04448  0.41387  Biso   1.000  He
  He168    1.0000 0.43005  0.01582  0.43133  Biso   1.000  He
  Ne168    1.0000 0.45761  0.99446  0.43242  Biso   1.000  Ne
  Ne169    1.0000 0.34057  0.73890  0.09487  Biso   1.000  Ne
  He169    1.0000 0.31092  0.73158  0.08091  Biso   1.000  He
  He170    1.0000 0.28617  0.71956  0.10062  Biso   1.000  He
  Ne170    1.0000 0.25558  0.71209  0.08728  Biso   1.000  Ne
  Ne171    1.0000 0.42740  0.60062  0.95640  Biso   1.000  Ne
  He171    1.0000 0.40431  0.62338  0.94286  Biso   1.000  He
  He172    1.0000 0.37477  0.61206  0.93469  Biso   1.000  He
  Ne172    1.0000 0.35178  0.63285  0.92565  Biso   1.000  Ne
  Ne173    1.0000 0.35216  0.05231  0.40422  Biso   1.000  Ne
  He173    1.0000 0.34164  0.05117  0.36964  Biso   1.000  He
  He174    1.0000 0.32040  0.07605  0.35664  Biso   1.000  He
  Ne174    1.0000 0.29099  0.06516  0.34988  Biso   1.000  Ne
  Ne175    1.0000 0.93593  0.64590  0.33872  Biso   1.000  Ne
  He175    1.0000 0.93456  0.63709  0.37132  Biso   1.000  He
  He176    1.0000 0.93318  0.66273  0.39198  Biso   1.000  He
  Ne176    1.0000 0.93927  0.65087  0.42237  Biso   1.000  Ne
  Ne177    1.0000 0.46250  0.42131  0.99129  Biso   1.000  Ne
  He177    1.0000 0.49078  0.41412  0.97569  Biso   1.000  He
  He178    1.0000 0.51724  0.43328  0.98018  Biso   1.000  He
  Ne178    1.0000 0.54512  0.42366  0.96326  Biso   1.000  Ne
  Ne179    1.0000 0.70625  0.21115  0.17768  Biso   1.000  Ne
  He179    1.0000 0.73360  0.20959  0.16467  Biso   1.000  He
  He180    1.0000 0.74185  0.23408  0.14365  Biso   1.000  He
  Ne180    1.0000 0.77144  0.22991  0.12604  Biso   1.000  Ne
  Ne181    1.0000 0.97039  0.45557  0.61273  Biso   1.000  Ne
  He181    1.0000 0.95134  0.47275  0.59146  Biso   1.000  He
  He182    1.0000 0.94802  0.45889  0.56080  Biso   1.000  He
  Ne182    1.0000 0.92941  0.47739  0.54054  Biso   1.000  Ne
  Ne183    1.0000 0.97369  0.00568  0.07865  Biso   1.000  Ne
  He183    1.0000 0.94268  0.00532  0.09388  Biso   1.000  He
  He184    1.0000 0.92094  0.02683  0.08204  Biso   1.000  He
  Ne184    1.0000 0.88938  0.02543  0.09559  Biso   1.000  Ne
  Ne185    1.0000 0.19398  0.56670  0.41015  Biso   1.000  Ne
  He185    1.0000 0.17041  0.56968  0.43412  Biso   1.000  He
  He186    1.0000 0.14819  0.54621  0.43262  Biso   1.000  He
  Ne186    1.0000 0.11838  0.55283  0.44725  Biso   1.000  Ne
  Ne187    1.0000 0.67439  0.31457  0.88446  Biso   1.000  Ne
  He187    1.0000 0.70318  0.32215  0.90159  Biso   1.000  He
  He188    1.0000 0.70664  0.35262  0.91397  Biso   1.000  He
  Ne188    1.0000 0.73659  0.36126  0.92578  Biso   1.000  Ne
  Ne189    1.0000 0.73715  0.40624  0.68307  Biso   1.000  Ne
  He189    1.0000 0.71200  0.39689  0.70556  Biso   1.000  He
  He190    1.0000 0.68667  0.38626  0.68754  Biso   1.000  He
  Ne190    1.0000 0.65891  0.37290  0.70088  Biso   1.000  Ne
  Ne191    1.0000 0.61407  0.29780  0.12397  Biso   1.000  Ne
  He191    1.0000 0.62579  0.32801  0.11963  Biso   1.000  He
  He192    1.0000 0.63398  0.33427  0.08764  Biso   1.000  He
  Ne192    1.0000 0.64745  0.36446  0.08018  Biso   1.000  Ne
  Ne193    1.0000 0.54362  0.38890  0.05392  Biso   1.000  Ne
  He193    1.0000 0.56192  0.39098  0.08097  Biso   1.000  He
  He194    1.0000 0.55814  0.41987  0.09669  Biso   1.000  He
  Ne194    1.0000 0.57212  0.42100  0.12896  Biso   1.000  Ne
  Ne195    1.0000 0.91572  0.07662  0.85674  Biso   1.000  Ne
  He195    1.0000 0.88754  0.07109  0.83977  Biso   1.000  He
  He196    1.0000 0.86086  0.08754  0.84967  Biso   1.000  He
  Ne196    1.0000 0.83547  0.08059  0.83185  Biso   1.000  Ne
  Ne197    1.0000 0.60949  0.38993  0.21526  Biso   1.000  Ne
  He197    1.0000 0.62439  0.38793  0.18481  Biso   1.000  He
  He198    1.0000 0.65719  0.39647  0.18947  Biso   1.000  He
  Ne198    1.0000 0.67463  0.39489  0.16187  Biso   1.000  Ne
  Ne199    1.0000 0.23032  0.15235  0.92598  Biso   1.000  Ne
  He199    1.0000 0.26265  0.14515  0.91901  Biso   1.000  He
  He200    1.0000 0.28292  0.17290  0.91513  Biso   1.000  He
  Ne200    1.0000 0.29632  0.18343  0.94170  Biso   1.000  Ne
  Ne201    1.0000 0.66639  0.12291  0.42170  Biso   1.000  Ne
  He201    1.0000 0.68688  0.14873  0.41337  Biso   1.000  He
  He202    1.0000 0.71306  0.15122  0.43483  Biso   1.000  He
  Ne202    1.0000 0.72958  0.18080  0.42742  Biso   1.000  Ne
  Ne203    1.0000 0.08182  0.91424  0.03460  Biso   1.000  Ne
  He203    1.0000 0.07908  0.94613  0.03058  Biso   1.000  He
  He204    1.0000 0.06165  0.96003  0.05278  Biso   1.000  He
  Ne204    1.0000 0.05641  0.99206  0.05138  Biso   1.000  Ne
  Ne205    1.0000 0.91819  0.32111  0.72997  Biso   1.000  Ne
  He205    1.0000 0.92747  0.35266  0.72201  Biso   1.000  He
  He206    1.0000 0.90879  0.37074  0.70335  Biso   1.000  He
  Ne206    1.0000 0.92089  0.40022  0.69701  Biso   1.000  Ne
  Ne207    1.0000 0.35654  0.16359  0.76887  Biso   1.000  Ne
  He207    1.0000 0.33246  0.16737  0.79090  Biso   1.000  He
  He208    1.0000 0.31720  0.13817  0.79760  Biso   1.000  He
  Ne208    1.0000 0.29537  0.14331  0.82089  Biso   1.000  Ne
  Ne209    1.0000 0.33767  0.19250  0.32375  Biso   1.000  Ne
  He209    1.0000 0.31262  0.17847  0.30512  Biso   1.000  He
  He210    1.0000 0.29024  0.20072  0.29493  Biso   1.000  He
  Ne210    1.0000 0.26746  0.18294  0.27326  Biso   1.000  Ne
  Ne211    1.0000 0.42319  0.17214  0.65184  Biso   1.000  Ne
  He211    1.0000 0.40683  0.14717  0.63898  Biso   1.000  He
  He212    1.0000 0.40116  0.14648  0.60561  Biso   1.000  He
  Ne212    1.0000 0.42159  0.12993  0.58807  Biso   1.000  Ne
  Ne213    1.0000 0.32959  0.72801  0.45311  Biso   1.000  Ne
  He213    1.0000 0.30104  0.71949  0.44533  Biso   1.000  He
  He214    1.0000 0.27608  0.74007  0.45549  Biso   1.000  He
  Ne214    1.0000 0.24505  0.73054  0.44832  Biso   1.000  Ne
  Ne215    1.0000 0.26661  0.57067  0.89233  Biso   1.000  Ne
  He215    1.0000 0.29092  0.56712  0.91358  Biso   1.000  He
  He216    1.0000 0.31936  0.55500  0.90272  Biso   1.000  He
  Ne216    1.0000 0.33711  0.54417  0.93008  Biso   1.000  Ne
  Ne217    1.0000 0.08725  0.54771  0.35772  Biso   1.000  Ne
  He217    1.0000 0.09627  0.57859  0.36269  Biso   1.000  He
  He218    1.0000 0.11535  0.58882  0.34104  Biso   1.000  He
  Ne218    1.0000 0.12963  0.61746  0.34818  Biso   1.000  Ne
  Ne219    1.0000 0.43998  0.33200  0.16339  Biso   1.000  Ne
  He219    1.0000 0.43483  0.34111  0.19170  Biso   1.000  He
  He220    1.0000 0.42547  0.37224  0.19355  Biso   1.000  He
  Ne220    1.0000 0.42877  0.38619  0.22285  Biso   1.000  Ne
  Ne221    1.0000 0.32748  0.06473  0.72051  Biso   1.000  Ne
  He221    1.0000 0.36121  0.06592  0.72721  Biso   1.000  He
  He222    1.0000 0.37636  0.08727  0.70684  Biso   1.000  He
  Ne222    1.0000 0.40898  0.08610  0.70702  Biso   1.000  Ne
  Ne223    1.0000 0.57045  0.22274  0.28560  Biso   1.000  Ne
  He223    1.0000 0.56419  0.20830  0.31507  Biso   1.000  He
  He224    1.0000 0.58486  0.18270  0.32158  Biso   1.000  He
  Ne224    1.0000 0.58031  0.16291  0.34715  Biso   1.000  Ne
  Ne225    1.0000 0.77419  0.03940  0.09890  Biso   1.000  Ne
  He225    1.0000 0.79358  0.03475  0.12202  Biso   1.000  He
  He226    1.0000 0.80046  0.06084  0.13900  Biso   1.000  He
  Ne226    1.0000 0.82532  0.05359  0.16166  Biso   1.000  Ne
  Ne227    1.0000 0.10651  0.04647  0.21749  Biso   1.000  Ne
  He227    1.0000 0.10527  0.07287  0.23972  Biso   1.000  He
  He228    1.0000 0.13476  0.07503  0.25568  Biso   1.000  He
  Ne228    1.0000 0.14132  0.10361  0.27219  Biso   1.000  Ne
  Ne229    1.0000 0.91856  0.90074  0.09097  Biso   1.000  Ne
  He229    1.0000 0.95110  0.89837  0.09437  Biso   1.000  He
  He230    1.0000 0.96689  0.92444  0.10809  Biso   1.000  He
  Ne230    1.0000 0.00047  0.91861  0.10804  Biso   1.000  Ne
  Ne231    1.0000 0.85681  0.84349  0.10205  Biso   1.000  Ne
  He231    1.0000 0.82905  0.84962  0.11790  Biso   1.000  He
  He232    1.0000 0.81436  0.87603  0.10522  Biso   1.000  He
  Ne232    1.0000 0.78801  0.88602  0.12367  Biso   1.000  Ne
  Ne233    1.0000 0.46078  0.32003  0.41993  Biso   1.000  Ne
  He233    1.0000 0.45534  0.28577  0.41192  Biso   1.000  He
  He234    1.0000 0.46723  0.26323  0.43529  Biso   1.000  He
  Ne234    1.0000 0.46071  0.23227  0.42990  Biso   1.000  Ne
  Ne235    1.0000 0.70143  0.53502  0.29318  Biso   1.000  Ne
  He235    1.0000 0.73096  0.54214  0.31067  Biso   1.000  He
  He236    1.0000 0.75850  0.55051  0.29279  Biso   1.000  He
  Ne236    1.0000 0.78141  0.56771  0.30883  Biso   1.000  Ne
  Ne237    1.0000 0.60614  0.03573  0.42417  Biso   1.000  Ne
  He237    1.0000 0.59918  0.06482  0.41620  Biso   1.000  He
  He238    1.0000 0.58414  0.08109  0.43959  Biso   1.000  He
  Ne238    1.0000 0.58172  0.11491  0.43591  Biso   1.000  Ne
  Ne239    1.0000 0.30633  0.82828  0.44225  Biso   1.000  Ne
  He239    1.0000 0.27933  0.81587  0.43267  Biso   1.000  He
  He240    1.0000 0.25246  0.83651  0.42662  Biso   1.000  He
  Ne240    1.0000 0.22632  0.81930  0.41532  Biso   1.000  Ne
  Ne241    1.0000 0.57897  0.14498  0.61090  Biso   1.000  Ne
  He241    1.0000 0.57727  0.17807  0.60482  Biso   1.000  He
  He242    1.0000 0.60262  0.19445  0.62163  Biso   1.000  He
  Ne242    1.0000 0.60130  0.22872  0.61746  Biso   1.000  Ne
  Ne243    1.0000 0.82429  0.68868  0.97444  Biso   1.000  Ne
  He243    1.0000 0.83307  0.66401  0.99526  Biso   1.000  He
  He244    1.0000 0.80855  0.64242  0.00493  Biso   1.000  He
  Ne244    1.0000 0.82066  0.61714  0.02144  Biso   1.000  Ne
  Ne245    1.0000 0.21253  0.35365  0.62038  Biso   1.000  Ne
  He245    1.0000 0.19107  0.36146  0.64321  Biso   1.000  He
  He246    1.0000 0.19873  0.34930  0.67138  Biso   1.000  He
  Ne246    1.0000 0.17150  0.34918  0.69068  Biso   1.000  Ne
  Ne247    1.0000 0.01514  0.40177  0.51375  Biso   1.000  Ne
  He247    1.0000 0.98521  0.39171  0.50695  Biso   1.000  He
  He248    1.0000 0.97149  0.40635  0.48534  Biso   1.000  He
  Ne248    1.0000 0.93900  0.40067  0.48498  Biso   1.000  Ne
  Ne249    1.0000 0.45875  0.11256  0.21030  Biso   1.000  Ne
  He249    1.0000 0.47355  0.10747  0.18136  Biso   1.000  He
  He250    1.0000 0.50435  0.12190  0.17515  Biso   1.000  He
  Ne250    1.0000 0.53184  0.10018  0.18236  Biso   1.000  Ne
  Ne251    1.0000 0.75621  0.24868  0.86869  Biso   1.000  Ne
  He251    1.0000 0.76058  0.24480  0.89932  Biso   1.000  He
  He252    1.0000 0.78631  0.26284  0.91167  Biso   1.000  He
  Ne252    1.0000 0.79805  0.25707  0.94343  Biso   1.000  Ne
  Ne253    1.0000 0.46122  0.43637  0.08626  Biso   1.000  Ne
  He253    1.0000 0.43664  0.41675  0.09703  Biso   1.000  He
  He254    1.0000 0.41756  0.39898  0.07580  Biso   1.000  He
  Ne254    1.0000 0.39372  0.37894  0.09370  Biso   1.000  Ne
  Ne255    1.0000 0.29895  0.51078  0.67185  Biso   1.000  Ne
  He255    1.0000 0.28886  0.53913  0.68595  Biso   1.000  He
  He256    1.0000 0.29917  0.56839  0.66922  Biso   1.000  He
  Ne256    1.0000 0.28764  0.59586  0.68553  Biso   1.000  Ne
  Ne257    1.0000 0.64351  0.39673  0.93247  Biso   1.000  Ne
  He257    1.0000 0.62968  0.37710  0.90953  Biso   1.000  He
  He258    1.0000 0.61355  0.35100  0.92509  Biso   1.000  He
  Ne258    1.0000 0.59763  0.32788  0.90383  Biso   1.000  Ne
  Ne259    1.0000 0.91585  0.26071  0.33227  Biso   1.000  Ne
  He259    1.0000 0.91325  0.28830  0.35149  Biso   1.000  He
  He260    1.0000 0.91586  0.31509  0.33467  Biso   1.000  He
  Ne260    1.0000 0.91386  0.34386  0.35865  Biso   1.000  Ne
  Ne261    1.0000 0.91031  0.87611  0.94470  Biso   1.000  Ne
  He261    1.0000 0.89916  0.88019  0.91470  Biso   1.000  He
  He262    1.0000 0.91502  0.89766  0.89247  Biso   1.000  He
  Ne262    1.0000 0.89792  0.90003  0.86464  Biso   1.000  Ne
  Ne263    1.0000 0.02811  0.51650  0.57193  Biso   1.000  Ne
  He263    1.0000 0.03665  0.53600  0.54609  Biso   1.000  He
  He264    1.0000 0.05655  0.52030  0.52290  Biso   1.000  He
  Ne264    1.0000 0.06996  0.54179  0.50365  Biso   1.000  Ne
  Ne265    1.0000 0.60305  0.67787  0.94284  Biso   1.000  Ne
  He265    1.0000 0.61022  0.64994  0.95527  Biso   1.000  He
  He266    1.0000 0.59735  0.62157  0.94434  Biso   1.000  He
  Ne266    1.0000 0.60322  0.59457  0.96358  Biso   1.000  Ne
  Ne267    1.0000 0.80704  0.86716  0.93672  Biso   1.000  Ne
  He267    1.0000 0.80516  0.86847  0.90300  Biso   1.000  He
  He268    1.0000 0.77188  0.86770  0.89457  Biso   1.000  He
  Ne268    1.0000 0.76602  0.87778  0.86239  Biso   1.000  Ne
  Ne269    1.0000 0.67514  0.88701  0.41453  Biso   1.000  Ne
  He269    1.0000 0.64540  0.87383  0.40980  Biso   1.000  He
  He270    1.0000 0.62531  0.89008  0.39154  Biso   1.000  He
  Ne270    1.0000 0.59624  0.87238  0.39055  Biso   1.000  Ne
  Ne271    1.0000 0.15587  0.23160  0.81445  Biso   1.000  Ne
  He271    1.0000 0.17568  0.25288  0.79737  Biso   1.000  He
  He272    1.0000 0.17278  0.25350  0.76452  Biso   1.000  He
  Ne272    1.0000 0.18877  0.27834  0.74826  Biso   1.000  Ne
  Ne273    1.0000 0.41987  0.12076  0.30358  Biso   1.000  Ne
  He273    1.0000 0.40425  0.09706  0.28884  Biso   1.000  He
  He274    1.0000 0.38957  0.07522  0.30815  Biso   1.000  He
  Ne274    1.0000 0.37199  0.05149  0.29453  Biso   1.000  Ne
  Ne275    1.0000 0.05542  0.47758  0.44972  Biso   1.000  Ne
  He275    1.0000 0.02495  0.48807  0.44403  Biso   1.000  He
  He276    1.0000 0.00144  0.46467  0.44848  Biso   1.000  He
  Ne276    1.0000 0.97426  0.47969  0.44418  Biso   1.000  Ne
  Ne277    1.0000 0.41655  0.63953  0.75153  Biso   1.000  Ne
  He277    1.0000 0.44513  0.65080  0.75778  Biso   1.000  He
  He278    1.0000 0.46974  0.63901  0.73754  Biso   1.000  He
  Ne278    1.0000 0.49174  0.66042  0.73169  Biso   1.000  Ne
  Ne279    1.0000 0.15536  0.05320  0.85238  Biso   1.000  Ne
  He279    1.0000 0.16499  0.05506  0.88507  Biso   1.000  He
  He280    1.0000 0.19196  0.07289  0.89297  Biso   1.000  He
  Ne280    1.0000 0.18919  0.08286  0.92561  Biso   1.000  Ne
  Ne281    1.0000 0.58771  0.56266  0.25565  Biso   1.000  Ne
  He281    1.0000 0.60768  0.57205  0.23167  Biso   1.000  He
  He282    1.0000 0.64114  0.57307  0.23689  Biso   1.000  He
  Ne282    1.0000 0.65913  0.59351  0.21768  Biso   1.000  Ne
  Ne283    1.0000 0.65965  0.90875  0.77417  Biso   1.000  Ne
  He283    1.0000 0.67476  0.88787  0.75429  Biso   1.000  He
  He284    1.0000 0.68128  0.90111  0.72369  Biso   1.000  He
  Ne284    1.0000 0.70328  0.88204  0.70582  Biso   1.000  Ne
  Ne285    1.0000 0.87061  0.40017  0.59894  Biso   1.000  Ne
  He285    1.0000 0.89284  0.37975  0.59057  Biso   1.000  He
  He286    1.0000 0.91693  0.38242  0.61141  Biso   1.000  He
  Ne286    1.0000 0.94495  0.37108  0.59859  Biso   1.000  Ne
  Ne287    1.0000 0.39058  0.85774  0.34339  Biso   1.000  Ne
  He287    1.0000 0.36604  0.86690  0.32501  Biso   1.000  He
  He288    1.0000 0.37217  0.86917  0.29183  Biso   1.000  He
  Ne288    1.0000 0.34437  0.87179  0.27459  Biso   1.000  Ne
  Ne289    1.0000 0.87089  0.39180  0.43722  Biso   1.000  Ne
  He289    1.0000 0.84298  0.39077  0.41693  Biso   1.000  He
  He290    1.0000 0.81591  0.40436  0.43068  Biso   1.000  He
  Ne290    1.0000 0.79028  0.41026  0.41222  Biso   1.000  Ne
  Ne291    1.0000 0.42173  0.74522  0.42603  Biso   1.000  Ne
  He291    1.0000 0.43400  0.72407  0.44757  Biso   1.000  He
  He292    1.0000 0.46327  0.72817  0.45943  Biso   1.000  He
  Ne292    1.0000 0.47141  0.69970  0.47701  Biso   1.000  Ne
  Ne293    1.0000 0.85957  0.80612  0.94461  Biso   1.000  Ne
  He293    1.0000 0.88285  0.78109  0.94936  Biso   1.000  He
  He294    1.0000 0.88048  0.75609  0.92652  Biso   1.000  He
  Ne294    1.0000 0.90418  0.73562  0.93137  Biso   1.000  Ne
  Ne295    1.0000 0.63223  0.01370  0.19011  Biso   1.000  Ne
  He295    1.0000 0.63427  0.98239  0.19947  Biso   1.000  He
  He296    1.0000 0.60451  0.97165  0.21296  Biso   1.000  He
  Ne296    1.0000 0.60059  0.94028  0.21978  Biso   1.000  Ne
  Ne297    1.0000 0.08523  0.38705  0.76398  Biso   1.000  Ne
  He297    1.0000 0.08692  0.38164  0.73076  Biso   1.000  He
  He298    1.0000 0.09466  0.35103  0.72423  Biso   1.000  He
  Ne298    1.0000 0.09141  0.34614  0.69190  Biso   1.000  Ne
  Ne299    1.0000 0.42671  0.15889  0.38603  Biso   1.000  Ne
  He299    1.0000 0.40245  0.14122  0.39444  Biso   1.000  He
  He300    1.0000 0.38136  0.15342  0.41796  Biso   1.000  He
  Ne300    1.0000 0.35609  0.13368  0.42436  Biso   1.000  Ne
