data_image0
_cell_length_a       46.6894
_cell_length_b       46.6487
_cell_length_c       46.5383
_cell_angle_alpha    90
_cell_angle_beta     90
_cell_angle_gamma    90

_symmetry_space_group_name_H-M    "P 1"
_symmetry_int_tables_number       1

loop_
  _symmetry_equiv_pos_as_xyz
  'x, y, z'

loop_
  _atom_site_label
  _atom_site_occupancy
  _atom_site_fract_x
  _atom_site_fract_y
  _atom_site_fract_z
  _atom_site_thermal_displace_type
  _atom_site_B_iso_or_equiv
  _atom_site_type_symbol
  Ne1      1.0000 0.53323  0.94967  0.51667  Biso   1.000  Ne
  He1      1.0000 0.56116  0.96151  0.52937  Biso   1.000  He
  He2      1.0000 0.57247  0.98901  0.51238  Biso   1.000  He
  Ne2      1.0000 0.60059  0.00228  0.52320  Biso   1.000  Ne
  Ne3      1.0000 0.93182  0.84506  0.87494  Biso   1.000  Ne
  He3      1.0000 0.92014  0.82768  0.90090  Biso   1.000  He
  He4      1.0000 0.93476  0.79864  0.90440  Biso   1.000  He
  Ne4      1.0000 0.91945  0.77939  0.92902  Biso   1.000  Ne
  Ne5      1.0000 0.80745  0.57671  0.79933  Biso   1.000  Ne
  He5      1.0000 0.78482  0.59836  0.78967  Biso   1.000  He
  He6      1.0000 0.75734  0.58542  0.77981  Biso   1.000  He
  Ne6      1.0000 0.73504  0.60689  0.76543  Biso   1.000  Ne
  Ne7      1.0000 0.98493  0.30124  0.03427  Biso   1.000  Ne
  He7      1.0000 0.99061  0.27844  0.05759  Biso   1.000  He
  He8      1.0000 0.99856  0.29384  0.08610  Biso   1.000  He
  Ne8      1.0000 0.99847  0.27502  0.11147  Biso   1.000  Ne
  Ne9      1.0000 0.11362  0.81703  0.39190  Biso   1.000  Ne
  He9      1.0000 0.10178  0.81917  0.36247  Biso   1.000  He
  He10     1.0000 0.12356  0.81151  0.34215  Biso   1.000  He
  Ne10     1.0000 0.11505  0.81657  0.30947  Biso   1.000  Ne
  Ne11     1.0000 0.21946  0.06057  0.24522  Biso   1.000  Ne
  He11     1.0000 0.21216  0.05264  0.27643  Biso   1.000  He
  He12     1.0000 0.17878  0.04384  0.27980  Biso   1.000  He
  Ne12     1.0000 0.16789  0.03236  0.31040  Biso   1.000  Ne
  Ne13     1.0000 0.52703  0.49347  0.04912  Biso   1.000  Ne
  He13     1.0000 0.55714  0.50540  0.06374  Biso   1.000  He
  He14     1.0000 0.55297  0.51602  0.09601  Biso   1.000  He
  Ne14     1.0000 0.58107  0.52866  0.10897  Biso   1.000  Ne
  Ne15     1.0000 0.99727  0.98059  0.29198  Biso   1.000  Ne
  He15     1.0000 0.02432  0.99675  0.29275  Biso   1.000  He
  He16     1.0000 0.04757  0.98771  0.31562  Biso   1.000  He
  Ne16     1.0000 0.07465  0.01024  0.32006  Biso   1.000  Ne
  Ne17     1.0000 0.29394  0.41675  0.12675  Biso   1.000  Ne
  He17     1.0000 0.31750  0.39616  0.12211  Biso   1.000  He
  He18     1.0000 0.34266  0.40279  0.13960  Biso   1.000  He
  Ne18     1.0000 0.36436  0.37748  0.13553  Biso   1.000  Ne
  Ne19     1.0000 0.11401  0.25015  0.58756  Biso   1.000  Ne
  He19     1.0000 0.13816  0.27059  0.59829  Biso   1.000  He
  He20     1.0000 0.14906  0.26146  0.62947  Biso   1.000  He
  Ne20     1.0000 0.17077  0.28250  0.64247  Biso   1.000  Ne
  Ne21     1.0000 0.92084  0.26292  0.30317  Biso   1.000  Ne
  He21     1.0000 0.92336  0.29352  0.28919  Biso   1.000  He
  He22     1.0000 0.93788  0.31438  0.30781  Biso   1.000  He
  Ne22     1.0000 0.94024  0.34646  0.29753  Biso   1.000  Ne
  Ne23     1.0000 0.10764  0.93960  0.94289  Biso   1.000  Ne
  He23     1.0000 0.09510  0.96511  0.95670  Biso   1.000  He
  He24     1.0000 0.06396  0.96416  0.95848  Biso   1.000  He
  Ne24     1.0000 0.05000  0.98884  0.97786  Biso   1.000  Ne
  Ne25     1.0000 0.86853  0.10368  0.19080  Biso   1.000  Ne
  He25     1.0000 0.84753  0.10890  0.16753  Biso   1.000  He
  He26     1.0000 0.83228  0.08448  0.15527  Biso   1.000  He
  Ne26     1.0000 0.81322  0.08994  0.12588  Biso   1.000  Ne
  Ne27     1.0000 0.67858  0.58386  0.91490  Biso   1.000  Ne
  He27     1.0000 0.70630  0.59694  0.90207  Biso   1.000  He
  He28     1.0000 0.72210  0.61818  0.92209  Biso   1.000  He
  Ne28     1.0000 0.74894  0.63007  0.90774  Biso   1.000  Ne
  Ne29     1.0000 0.35258  0.11143  0.23513  Biso   1.000  Ne
  He29     1.0000 0.37675  0.13035  0.25026  Biso   1.000  He
  He30     1.0000 0.39933  0.11497  0.26721  Biso   1.000  He
  Ne30     1.0000 0.42419  0.13382  0.28259  Biso   1.000  Ne
  Ne31     1.0000 0.64560  0.08540  0.34096  Biso   1.000  Ne
  He31     1.0000 0.67597  0.10126  0.33511  Biso   1.000  He
  He32     1.0000 0.69999  0.09145  0.35772  Biso   1.000  He
  Ne32     1.0000 0.73015  0.10597  0.35509  Biso   1.000  Ne
  Ne33     1.0000 0.72412  0.33042  0.91188  Biso   1.000  Ne
  He33     1.0000 0.75140  0.31005  0.90933  Biso   1.000  He
  He34     1.0000 0.74721  0.28069  0.89443  Biso   1.000  He
  Ne34     1.0000 0.77295  0.25855  0.89833  Biso   1.000  Ne
  Ne35     1.0000 0.07209  0.65764  0.62839  Biso   1.000  Ne
  He35     1.0000 0.10362  0.65378  0.61921  Biso   1.000  He
  He36     1.0000 0.12916  0.66524  0.63589  Biso   1.000  He
  Ne36     1.0000 0.15797  0.65646  0.62335  Biso   1.000  Ne
  Ne37     1.0000 0.95710  0.98702  0.00782  Biso   1.000  Ne
  He37     1.0000 0.96765  0.95889  0.99354  Biso   1.000  He
  He38     1.0000 0.98990  0.94411  0.01140  Biso   1.000  He
  Ne38     1.0000 0.99691  0.91534  0.00019  Biso   1.000  Ne
  Ne39     1.0000 0.70720  0.39139  0.16933  Biso   1.000  Ne
  He39     1.0000 0.73891  0.38870  0.18109  Biso   1.000  He
  He40     1.0000 0.75951  0.39393  0.15663  Biso   1.000  He
  Ne40     1.0000 0.79146  0.39669  0.16259  Biso   1.000  Ne
  Ne41     1.0000 0.45780  0.91004  0.52002  Biso   1.000  Ne
  He41     1.0000 0.44436  0.92536  0.49456  Biso   1.000  He
  He42     1.0000 0.44232  0.91208  0.46692  Biso   1.000  He
  Ne42     1.0000 0.43066  0.92857  0.44037  Biso   1.000  Ne
  Ne43     1.0000 0.08421  0.43298  0.55094  Biso   1.000  Ne
  He43     1.0000 0.05848  0.43430  0.52681  Biso   1.000  He
  He44     1.0000 0.04021  0.40760  0.52833  Biso   1.000  He
  Ne44     1.0000 0.01656  0.40733  0.50655  Biso   1.000  Ne
  Ne45     1.0000 0.18576  0.15846  0.51004  Biso   1.000  Ne
  He45     1.0000 0.19498  0.17104  0.48178  Biso   1.000  He
  He46     1.0000 0.17721  0.19777  0.47136  Biso   1.000  He
  Ne46     1.0000 0.18817  0.20628  0.43927  Biso   1.000  Ne
  Ne47     1.0000 0.28507  0.57483  0.80772  Biso   1.000  Ne
  He47     1.0000 0.26911  0.57886  0.83919  Biso   1.000  He
  He48     1.0000 0.28234  0.56562  0.86522  Biso   1.000  He
  Ne48     1.0000 0.27011  0.57463  0.89255  Biso   1.000  Ne
  Ne49     1.0000 0.53321  0.20520  0.15957  Biso   1.000  Ne
  He49     1.0000 0.52166  0.17531  0.15296  Biso   1.000  He
  He50     1.0000 0.49265  0.17733  0.13841  Biso   1.000  He
  Ne50     1.0000 0.47630  0.14863  0.13080  Biso   1.000  Ne
  Ne51     1.0000 0.39263  0.40688  0.93563  Biso   1.000  Ne
  He51     1.0000 0.35959  0.41101  0.93536  Biso   1.000  He
  He52     1.0000 0.34253  0.40052  0.95805  Biso   1.000  He
  Ne52     1.0000 0.30999  0.40195  0.95066  Biso   1.000  Ne
  Ne53     1.0000 0.61093  0.57097  0.16107  Biso   1.000  Ne
  He53     1.0000 0.61258  0.60247  0.16896  Biso   1.000  He
  He54     1.0000 0.60251  0.62493  0.14654  Biso   1.000  He
  Ne54     1.0000 0.60670  0.65599  0.15747  Biso   1.000  Ne
  Ne55     1.0000 0.76407  0.69599  0.40690  Biso   1.000  Ne
  He55     1.0000 0.79552  0.69842  0.39976  Biso   1.000  He
  He56     1.0000 0.81247  0.67092  0.40785  Biso   1.000  He
  Ne56     1.0000 0.83059  0.65834  0.38145  Biso   1.000  Ne
  Ne57     1.0000 0.08683  0.04977  0.11363  Biso   1.000  Ne
  He57     1.0000 0.09674  0.08433  0.11447  Biso   1.000  He
  He58     1.0000 0.09204  0.10067  0.08836  Biso   1.000  He
  Ne58     1.0000 0.10357  0.13422  0.08943  Biso   1.000  Ne
  Ne59     1.0000 0.11693  0.55255  0.64640  Biso   1.000  Ne
  He59     1.0000 0.13889  0.56347  0.62546  Biso   1.000  He
  He60     1.0000 0.17130  0.56531  0.63674  Biso   1.000  He
  Ne60     1.0000 0.19458  0.57619  0.61374  Biso   1.000  Ne
  Ne61     1.0000 0.69477  0.07346  0.43789  Biso   1.000  Ne
  He61     1.0000 0.71870  0.09125  0.45441  Biso   1.000  He
  He62     1.0000 0.75035  0.09806  0.43808  Biso   1.000  He
  Ne62     1.0000 0.77475  0.11410  0.45596  Biso   1.000  Ne
  Ne63     1.0000 0.96656  0.56046  0.37467  Biso   1.000  Ne
  He63     1.0000 0.97234  0.54916  0.40403  Biso   1.000  He
  He64     1.0000 0.95497  0.56275  0.42918  Biso   1.000  He
  Ne64     1.0000 0.93103  0.54241  0.44216  Biso   1.000  Ne
  Ne65     1.0000 0.15146  0.97274  0.36915  Biso   1.000  Ne
  He65     1.0000 0.11907  0.97350  0.37998  Biso   1.000  He
  He66     1.0000 0.10056  0.94518  0.37464  Biso   1.000  He
  Ne66     1.0000 0.06976  0.94751  0.38610  Biso   1.000  Ne
  Ne67     1.0000 0.46591  0.29952  0.19593  Biso   1.000  Ne
  He67     1.0000 0.46364  0.26771  0.18510  Biso   1.000  He
  He68     1.0000 0.46341  0.24604  0.20933  Biso   1.000  He
  Ne68     1.0000 0.46327  0.21432  0.20061  Biso   1.000  Ne
  Ne69     1.0000 0.22795  0.08485  0.12119  Biso   1.000  Ne
  He69     1.0000 0.25145  0.06098  0.12165  Biso   1.000  He
  He70     1.0000 0.28326  0.06980  0.11585  Biso   1.000  He
  Ne70     1.0000 0.30357  0.04380  0.11946  Biso   1.000  Ne
  Ne71     1.0000 0.10573  0.77062  0.88293  Biso   1.000  Ne
  He71     1.0000 0.11811  0.79854  0.89729  Biso   1.000  He
  He72     1.0000 0.12747  0.79845  0.92895  Biso   1.000  He
  Ne72     1.0000 0.13672  0.82732  0.94015  Biso   1.000  Ne
  Ne73     1.0000 0.39399  0.56817  0.95918  Biso   1.000  Ne
  He73     1.0000 0.36356  0.57513  0.94492  Biso   1.000  He
  He74     1.0000 0.36368  0.60707  0.93561  Biso   1.000  He
  Ne74     1.0000 0.33430  0.62426  0.93038  Biso   1.000  Ne
  Ne75     1.0000 0.36606  0.05953  0.69850  Biso   1.000  Ne
  He75     1.0000 0.39423  0.07523  0.71283  Biso   1.000  He
  He76     1.0000 0.41243  0.09564  0.69164  Biso   1.000  He
  Ne76     1.0000 0.43513  0.10921  0.70596  Biso   1.000  Ne
  Ne77     1.0000 0.77315  0.94329  0.11295  Biso   1.000  Ne
  He77     1.0000 0.75456  0.91620  0.11293  Biso   1.000  He
  He78     1.0000 0.77060  0.89115  0.12536  Biso   1.000  He
  Ne78     1.0000 0.74989  0.86488  0.12781  Biso   1.000  Ne
  Ne79     1.0000 0.89708  0.41189  0.33517  Biso   1.000  Ne
  He79     1.0000 0.92744  0.40980  0.35209  Biso   1.000  He
  He80     1.0000 0.93106  0.38838  0.37429  Biso   1.000  He
  Ne80     1.0000 0.95860  0.39346  0.38994  Biso   1.000  Ne
  Ne81     1.0000 0.05136  0.49605  0.46215  Biso   1.000  Ne
  He81     1.0000 0.03942  0.47546  0.43930  Biso   1.000  He
  He82     1.0000 0.00454  0.47636  0.43583  Biso   1.000  He
  Ne82     1.0000 0.99140  0.45313  0.41771  Biso   1.000  Ne
  Ne83     1.0000 0.74643  0.58216  0.25026  Biso   1.000  Ne
  He83     1.0000 0.74480  0.60852  0.26919  Biso   1.000  He
  He84     1.0000 0.73533  0.63470  0.25391  Biso   1.000  He
  Ne84     1.0000 0.73923  0.66321  0.27134  Biso   1.000  Ne
  Ne85     1.0000 0.46191  0.40007  0.05887  Biso   1.000  Ne
  He85     1.0000 0.45600  0.43050  0.07149  Biso   1.000  He
  He86     1.0000 0.48049  0.43883  0.09383  Biso   1.000  He
  Ne86     1.0000 0.48182  0.47066  0.10386  Biso   1.000  Ne
  Ne87     1.0000 0.67490  0.60427  0.10063  Biso   1.000  Ne
  He87     1.0000 0.70312  0.59096  0.10396  Biso   1.000  He
  He88     1.0000 0.72450  0.59556  0.07934  Biso   1.000  He
  Ne88     1.0000 0.75555  0.58772  0.08735  Biso   1.000  Ne
  Ne89     1.0000 0.06822  0.55538  0.55500  Biso   1.000  Ne
  He89     1.0000 0.07475  0.53573  0.57920  Biso   1.000  He
  He90     1.0000 0.05936  0.50657  0.57936  Biso   1.000  He
  Ne90     1.0000 0.06733  0.48855  0.60530  Biso   1.000  Ne
  Ne91     1.0000 0.97644  0.07638  0.07990  Biso   1.000  Ne
  He91     1.0000 0.94543  0.08969  0.08190  Biso   1.000  He
  He92     1.0000 0.92392  0.06598  0.07836  Biso   1.000  He
  Ne92     1.0000 0.89067  0.07145  0.08958  Biso   1.000  Ne
  Ne93     1.0000 0.11964  0.64985  0.40513  Biso   1.000  Ne
  He93     1.0000 0.13089  0.63586  0.43110  Biso   1.000  He
  He94     1.0000 0.11107  0.61209  0.44285  Biso   1.000  He
  Ne94     1.0000 0.12656  0.59136  0.46450  Biso   1.000  Ne
  Ne95     1.0000 0.57426  0.40269  0.98394  Biso   1.000  Ne
  He95     1.0000 0.56151  0.43018  0.96536  Biso   1.000  He
  He96     1.0000 0.58401  0.44812  0.94914  Biso   1.000  He
  Ne96     1.0000 0.56977  0.47127  0.92977  Biso   1.000  Ne
  Ne97     1.0000 0.93514  0.06430  0.86707  Biso   1.000  Ne
  He97     1.0000 0.90073  0.07202  0.86326  Biso   1.000  He
  He98     1.0000 0.88441  0.07555  0.89062  Biso   1.000  He
  Ne98     1.0000 0.85231  0.08582  0.89015  Biso   1.000  Ne
  Ne99     1.0000 0.13202  0.57690  0.34865  Biso   1.000  Ne
  He99     1.0000 0.16007  0.56540  0.33321  Biso   1.000  He
  He100    1.0000 0.17145  0.58193  0.30834  Biso   1.000  He
  Ne100    1.0000 0.19935  0.56894  0.28962  Biso   1.000  Ne
  Ne101    1.0000 0.18669  0.68235  0.97712  Biso   1.000  Ne
  He101    1.0000 0.20788  0.67761  0.95413  Biso   1.000  He
  He102    1.0000 0.23440  0.66004  0.96186  Biso   1.000  He
  Ne102    1.0000 0.25733  0.65850  0.93718  Biso   1.000  Ne
  Ne103    1.0000 0.68519  0.71862  0.09141  Biso   1.000  Ne
  He103    1.0000 0.71553  0.71152  0.09593  Biso   1.000  He
  He104    1.0000 0.71947  0.67978  0.10512  Biso   1.000  He
  Ne104    1.0000 0.74968  0.66954  0.10600  Biso   1.000  Ne
  Ne105    1.0000 0.48408  0.06815  0.43529  Biso   1.000  Ne
  He105    1.0000 0.45525  0.05602  0.44846  Biso   1.000  He
  He106    1.0000 0.46115  0.02672  0.46362  Biso   1.000  He
  Ne106    1.0000 0.43649  0.01058  0.47760  Biso   1.000  Ne
  Ne107    1.0000 0.11324  0.84383  0.18117  Biso   1.000  Ne
  He107    1.0000 0.11233  0.87744  0.17586  Biso   1.000  He
  He108    1.0000 0.12924  0.88719  0.14746  Biso   1.000  He
  Ne108    1.0000 0.12845  0.91883  0.14498  Biso   1.000  Ne
  Ne109    1.0000 0.23916  0.05792  0.91901  Biso   1.000  Ne
  He109    1.0000 0.21296  0.06500  0.90483  Biso   1.000  He
  He110    1.0000 0.21380  0.05365  0.87245  Biso   1.000  He
  Ne110    1.0000 0.18840  0.06669  0.85375  Biso   1.000  Ne
  Ne111    1.0000 0.32968  0.92005  0.25940  Biso   1.000  Ne
  He111    1.0000 0.33799  0.93603  0.22975  Biso   1.000  He
  He112    1.0000 0.35656  0.96541  0.23101  Biso   1.000  He
  Ne112    1.0000 0.35769  0.98147  0.20129  Biso   1.000  Ne
  Ne113    1.0000 0.63188  0.34699  0.10632  Biso   1.000  Ne
  He113    1.0000 0.64313  0.33998  0.13726  Biso   1.000  He
  He114    1.0000 0.62971  0.31430  0.15652  Biso   1.000  He
  Ne114    1.0000 0.64971  0.28765  0.15909  Biso   1.000  Ne
  Ne115    1.0000 0.20886  0.83627  0.08853  Biso   1.000  Ne
  He115    1.0000 0.21461  0.85736  0.11274  Biso   1.000  He
  He116    1.0000 0.21343  0.88931  0.10145  Biso   1.000  He
  Ne116    1.0000 0.21910  0.91300  0.12626  Biso   1.000  Ne
  Ne117    1.0000 0.42074  0.41224  0.16799  Biso   1.000  Ne
  He117    1.0000 0.45452  0.40730  0.17250  Biso   1.000  He
  He118    1.0000 0.46104  0.39387  0.20199  Biso   1.000  He
  Ne118    1.0000 0.47052  0.41214  0.22516  Biso   1.000  Ne
  Ne119    1.0000 0.24028  0.89837  0.31219  Biso   1.000  Ne
  He119    1.0000 0.23500  0.90226  0.34484  Biso   1.000  He
  He120    1.0000 0.24454  0.92959  0.35388  Biso   1.000  He
  Ne120    1.0000 0.27364  0.93001  0.37186  Biso   1.000  Ne
  Ne121    1.0000 0.62855  0.23165  0.09814  Biso   1.000  Ne
  He121    1.0000 0.60100  0.21501  0.09594  Biso   1.000  He
  He122    1.0000 0.58211  0.22670  0.07136  Biso   1.000  He
  Ne122    1.0000 0.55250  0.21249  0.06659  Biso   1.000  Ne
  Ne123    1.0000 0.88870  0.00227  0.31507  Biso   1.000  Ne
  He123    1.0000 0.90497  0.01094  0.34234  Biso   1.000  He
  He124    1.0000 0.89481  0.03966  0.35537  Biso   1.000  He
  Ne124    1.0000 0.91238  0.04805  0.38125  Biso   1.000  Ne
  Ne125    1.0000 0.80458  0.36641  0.43733  Biso   1.000  Ne
  He125    1.0000 0.78836  0.34297  0.45506  Biso   1.000  He
  He126    1.0000 0.78271  0.31499  0.43715  Biso   1.000  He
  Ne126    1.0000 0.80046  0.28940  0.44618  Biso   1.000  Ne
  Ne127    1.0000 0.60181  0.18173  0.63254  Biso   1.000  Ne
  He127    1.0000 0.62618  0.16536  0.62008  Biso   1.000  He
  He128    1.0000 0.61896  0.13736  0.60860  Biso   1.000  He
  Ne128    1.0000 0.64427  0.12127  0.59438  Biso   1.000  Ne
  Ne129    1.0000 0.89719  0.26009  0.43488  Biso   1.000  Ne
  He129    1.0000 0.90699  0.29041  0.44970  Biso   1.000  He
  He130    1.0000 0.91847  0.31324  0.42895  Biso   1.000  He
  Ne130    1.0000 0.93497  0.33783  0.44291  Biso   1.000  Ne
  Ne131    1.0000 0.20259  0.90031  0.93359  Biso   1.000  Ne
  He131    1.0000 0.21454  0.89640  0.90360  Biso   1.000  He
  He132    1.0000 0.19070  0.89071  0.87988  Biso   1.000  He
  Ne132    1.0000 0.20062  0.88840  0.84741  Biso   1.000  Ne
  Ne133    1.0000 0.39684  0.29193  0.13398  Biso   1.000  Ne
  He133    1.0000 0.40585  0.27413  0.10656  Biso   1.000  He
  He134    1.0000 0.43540  0.26507  0.10811  Biso   1.000  He
  Ne134    1.0000 0.44800  0.25530  0.07842  Biso   1.000  Ne
  Ne135    1.0000 0.65233  0.28751  0.44393  Biso   1.000  Ne
  He135    1.0000 0.67365  0.27062  0.42518  Biso   1.000  He
  He136    1.0000 0.68683  0.28920  0.39962  Biso   1.000  He
  Ne136    1.0000 0.71343  0.27616  0.37932  Biso   1.000  Ne
  Ne137    1.0000 0.93484  0.70735  0.44913  Biso   1.000  Ne
  He137    1.0000 0.94141  0.68641  0.42448  Biso   1.000  He
  He138    1.0000 0.91487  0.66489  0.42436  Biso   1.000  He
  Ne138    1.0000 0.91512  0.64638  0.39762  Biso   1.000  Ne
  Ne139    1.0000 0.91317  0.42511  0.58021  Biso   1.000  Ne
  He139    1.0000 0.93210  0.41628  0.60538  Biso   1.000  He
  He140    1.0000 0.91751  0.40901  0.63568  Biso   1.000  He
  Ne140    1.0000 0.93851  0.40807  0.66104  Biso   1.000  Ne
  Ne141    1.0000 0.69886  0.40777  0.89547  Biso   1.000  Ne
  He141    1.0000 0.66656  0.41442  0.90259  Biso   1.000  He
  He142    1.0000 0.64246  0.40678  0.87836  Biso   1.000  He
  Ne142    1.0000 0.60971  0.40249  0.88922  Biso   1.000  Ne
  Ne143    1.0000 0.91147  0.21219  0.77387  Biso   1.000  Ne
  He143    1.0000 0.92179  0.19594  0.74658  Biso   1.000  He
  He144    1.0000 0.95165  0.17706  0.74831  Biso   1.000  He
  Ne144    1.0000 0.96236  0.15785  0.72308  Biso   1.000  Ne
  Ne145    1.0000 0.11081  0.36493  0.62355  Biso   1.000  Ne
  He145    1.0000 0.10422  0.35947  0.65597  Biso   1.000  He
  He146    1.0000 0.08701  0.38232  0.66821  Biso   1.000  He
  Ne146    1.0000 0.08640  0.37968  0.70082  Biso   1.000  Ne
  Ne147    1.0000 0.58028  0.84607  0.63901  Biso   1.000  Ne
  He147    1.0000 0.59367  0.86401  0.61566  Biso   1.000  He
  He148    1.0000 0.58766  0.85041  0.58604  Biso   1.000  He
  Ne148    1.0000 0.60568  0.86766  0.56156  Biso   1.000  Ne
  Ne149    1.0000 0.11549  0.39788  0.36675  Biso   1.000  Ne
  He149    1.0000 0.13228  0.40040  0.33776  Biso   1.000  He
  He150    1.0000 0.11328  0.40935  0.31221  Biso   1.000  He
  Ne150    1.0000 0.13084  0.40408  0.28440  Biso   1.000  Ne
  Ne151    1.0000 0.35536  0.18293  0.44584  Biso   1.000  Ne
  He151    1.0000 0.38250  0.18406  0.42929  Biso   1.000  He
  He152    1.0000 0.40919  0.19871  0.44358  Biso   1.000  He
  Ne152    1.0000 0.43959  0.19730  0.42733  Biso   1.000  Ne
  Ne153    1.0000 0.57168  0.56548  0.97432  Biso   1.000  Ne
  He153    1.0000 0.53775  0.56092  0.97202  Biso   1.000  He
  He154    1.0000 0.52585  0.55560  0.94085  Biso   1.000  He
  Ne154    1.0000 0.49331  0.55311  0.93913  Biso   1.000  Ne
  Ne155    1.0000 0.38493  0.59093  0.09810  Biso   1.000  Ne
  He155    1.0000 0.38820  0.62270  0.11027  Biso   1.000  He
  He156    1.0000 0.41201  0.64072  0.09648  Biso   1.000  He
  Ne156    1.0000 0.42131  0.66525  0.11897  Biso   1.000  Ne
  Ne157    1.0000 0.80051  0.33736  0.67486  Biso   1.000  Ne
  He157    1.0000 0.82048  0.36033  0.65951  Biso   1.000  He
  He158    1.0000 0.81213  0.39255  0.66531  Biso   1.000  He
  Ne158    1.0000 0.83173  0.41301  0.64592  Biso   1.000  Ne
  Ne159    1.0000 0.14169  0.31675  0.33703  Biso   1.000  Ne
  He159    1.0000 0.12461  0.29179  0.34676  Biso   1.000  He
  He160    1.0000 0.10483  0.28868  0.37427  Biso   1.000  He
  Ne160    1.0000 0.12040  0.27727  0.40191  Biso   1.000  Ne
  Ne161    1.0000 0.42869  0.56789  0.85657  Biso   1.000  Ne
  He161    1.0000 0.41662  0.59287  0.87534  Biso   1.000  He
  He162    1.0000 0.43371  0.62203  0.86677  Biso   1.000  He
  Ne162    1.0000 0.42938  0.64787  0.88863  Biso   1.000  Ne
  Ne163    1.0000 0.94437  0.56512  0.53154  Biso   1.000  Ne
  He163    1.0000 0.96927  0.54321  0.53065  Biso   1.000  He
  He164    1.0000 0.96129  0.51268  0.52096  Biso   1.000  He
  Ne164    1.0000 0.98776  0.49261  0.51882  Biso   1.000  Ne
  Ne165    1.0000 0.98618  0.81245  0.44342  Biso   1.000  Ne
  He165    1.0000 0.95797  0.80417  0.45918  Biso   1.000  He
  He166    1.0000 0.93016  0.81219  0.44837  Biso   1.000  He
  Ne166    1.0000 0.90288  0.80002  0.46890  Biso   1.000  Ne
  Ne167    1.0000 0.23940  0.36220  0.62921  Biso   1.000  Ne
  He167    1.0000 0.21885  0.37922  0.61227  Biso   1.000  He
  He168    1.0000 0.19165  0.39035  0.62841  Biso   1.000  He
  Ne168    1.0000 0.17379  0.41063  0.60867  Biso   1.000  Ne
  Ne169    1.0000 0.98404  0.04976  0.94277  Biso   1.000  Ne
  He169    1.0000 0.95979  0.06823  0.95779  Biso   1.000  He
  He170    1.0000 0.95584  0.09673  0.94004  Biso   1.000  He
  Ne170    1.0000 0.93218  0.11819  0.95161  Biso   1.000  Ne
  Ne171    1.0000 0.26913  0.57207  0.12858  Biso   1.000  Ne
  He171    1.0000 0.28961  0.57492  0.15563  Biso   1.000  He
  He172    1.0000 0.32309  0.56823  0.14921  Biso   1.000  He
  Ne172    1.0000 0.34571  0.57215  0.17290  Biso   1.000  Ne
  Ne173    1.0000 0.73663  0.55682  0.54035  Biso   1.000  Ne
  He173    1.0000 0.76212  0.57832  0.53963  Biso   1.000  He
  He174    1.0000 0.78936  0.57075  0.55627  Biso   1.000  He
  Ne174    1.0000 0.81325  0.59386  0.55338  Biso   1.000  Ne
  Ne175    1.0000 0.35311  0.93024  0.33506  Biso   1.000  Ne
  He175    1.0000 0.38096  0.91563  0.32274  Biso   1.000  He
  He176    1.0000 0.40890  0.92998  0.33384  Biso   1.000  He
  Ne176    1.0000 0.43969  0.91785  0.32658  Biso   1.000  Ne
  Ne177    1.0000 0.76872  0.22422  0.40628  Biso   1.000  Ne
  He177    1.0000 0.74533  0.21086  0.42458  Biso   1.000  He
  He178    1.0000 0.72832  0.18723  0.41093  Biso   1.000  He
  Ne178    1.0000 0.69993  0.17458  0.42696  Biso   1.000  Ne
  Ne179    1.0000 0.88595  0.63602  0.29622  Biso   1.000  Ne
  He179    1.0000 0.90351  0.60916  0.29354  Biso   1.000  He
  He180    1.0000 0.93484  0.61097  0.30439  Biso   1.000  He
  Ne180    1.0000 0.95028  0.58283  0.29995  Biso   1.000  Ne
  Ne181    1.0000 0.09235  0.57973  0.73187  Biso   1.000  Ne
  He181    1.0000 0.08837  0.57292  0.76352  Biso   1.000  He
  He182    1.0000 0.11511  0.55488  0.77490  Biso   1.000  He
  Ne182    1.0000 0.11752  0.54790  0.80740  Biso   1.000  Ne
  Ne183    1.0000 0.56407  0.07054  0.47928  Biso   1.000  Ne
  He183    1.0000 0.58364  0.05573  0.45718  Biso   1.000  He
  He184    1.0000 0.57334  0.05146  0.42597  Biso   1.000  He
  Ne184    1.0000 0.59567  0.03712  0.40637  Biso   1.000  Ne
  Ne185    1.0000 0.58047  0.73507  0.82820  Biso   1.000  Ne
  He185    1.0000 0.58378  0.74272  0.79733  Biso   1.000  He
  He186    1.0000 0.60225  0.72072  0.78035  Biso   1.000  He
  Ne186    1.0000 0.60567  0.72800  0.75092  Biso   1.000  Ne
  Ne187    1.0000 0.82443  0.58717  0.68157  Biso   1.000  Ne
  He187    1.0000 0.85626  0.57743  0.67434  Biso   1.000  He
  He188    1.0000 0.87832  0.58067  0.69740  Biso   1.000  He
  Ne188    1.0000 0.90865  0.56932  0.68986  Biso   1.000  Ne
  Ne189    1.0000 0.62168  0.35750  0.24481  Biso   1.000  Ne
  He189    1.0000 0.62804  0.37210  0.21547  Biso   1.000  He
  He190    1.0000 0.62530  0.40681  0.21530  Biso   1.000  He
  Ne190    1.0000 0.62527  0.41774  0.18534  Biso   1.000  Ne
  Ne191    1.0000 0.13953  0.75700  0.62909  Biso   1.000  Ne
  He191    1.0000 0.16982  0.74893  0.62702  Biso   1.000  He
  He192    1.0000 0.18594  0.76334  0.59830  Biso   1.000  He
  Ne192    1.0000 0.21819  0.75686  0.59191  Biso   1.000  Ne
  Ne193    1.0000 0.27098  0.15805  0.59715  Biso   1.000  Ne
  He193    1.0000 0.30372  0.14867  0.59762  Biso   1.000  He
  He194    1.0000 0.31746  0.15401  0.62745  Biso   1.000  He
  Ne194    1.0000 0.35035  0.14511  0.63050  Biso   1.000  Ne
  Ne195    1.0000 0.23349  0.17518  0.93218  Biso   1.000  Ne
  He195    1.0000 0.26474  0.16495  0.93657  Biso   1.000  He
  He196    1.0000 0.26788  0.13610  0.95214  Biso   1.000  He
  Ne196    1.0000 0.29704  0.12234  0.95715  Biso   1.000  Ne
  Ne197    1.0000 0.58636  0.04741  0.58567  Biso   1.000  Ne
  He197    1.0000 0.58482  0.05224  0.61792  Biso   1.000  He
  He198    1.0000 0.61606  0.04502  0.63078  Biso   1.000  He
  Ne198    1.0000 0.62047  0.05086  0.66629  Biso   1.000  Ne
  Ne199    1.0000 0.91486  0.70154  0.32124  Biso   1.000  Ne
  He199    1.0000 0.92694  0.72556  0.34026  Biso   1.000  He
  He200    1.0000 0.91837  0.75413  0.33023  Biso   1.000  He
  Ne200    1.0000 0.92632  0.77803  0.35317  Biso   1.000  Ne
  Ne201    1.0000 0.33226  0.41154  0.37583  Biso   1.000  Ne
  He201    1.0000 0.30837  0.40811  0.39860  Biso   1.000  He
  He202    1.0000 0.31419  0.38383  0.41889  Biso   1.000  He
  Ne202    1.0000 0.29121  0.38025  0.44459  Biso   1.000  Ne
  Ne203    1.0000 0.44934  0.11405  0.34931  Biso   1.000  Ne
  He203    1.0000 0.42274  0.11878  0.36885  Biso   1.000  He
  He204    1.0000 0.40468  0.09102  0.37705  Biso   1.000  He
  Ne204    1.0000 0.37797  0.09533  0.39542  Biso   1.000  Ne
  Ne205    1.0000 0.20863  0.83080  0.27405  Biso   1.000  Ne
  He205    1.0000 0.22243  0.84194  0.24787  Biso   1.000  He
  He206    1.0000 0.20502  0.86501  0.23010  Biso   1.000  He
  Ne206    1.0000 0.22473  0.87398  0.20310  Biso   1.000  Ne
  Ne207    1.0000 0.62557  0.57519  0.84668  Biso   1.000  Ne
  He207    1.0000 0.64224  0.55481  0.82854  Biso   1.000  He
  He208    1.0000 0.64689  0.56707  0.80200  Biso   1.000  He
  Ne208    1.0000 0.66696  0.54997  0.78443  Biso   1.000  Ne
  Ne209    1.0000 0.90716  0.18940  0.92129  Biso   1.000  Ne
  He209    1.0000 0.90983  0.17581  0.89135  Biso   1.000  He
  He210    1.0000 0.94197  0.16706  0.87796  Biso   1.000  He
  Ne210    1.0000 0.94125  0.16210  0.84586  Biso   1.000  Ne
  Ne211    1.0000 0.71477  0.37514  0.53267  Biso   1.000  Ne
  He211    1.0000 0.73461  0.39819  0.54640  Biso   1.000  He
  He212    1.0000 0.74646  0.38949  0.57787  Biso   1.000  He
  Ne212    1.0000 0.76601  0.41206  0.59185  Biso   1.000  Ne
  Ne213    1.0000 0.94238  0.81171  0.13260  Biso   1.000  Ne
  He213    1.0000 0.93735  0.82877  0.16184  Biso   1.000  He
  He214    1.0000 0.93618  0.80443  0.18431  Biso   1.000  He
  Ne214    1.0000 0.93197  0.81589  0.21594  Biso   1.000  Ne
  Ne215    1.0000 0.61782  0.13858  0.41319  Biso   1.000  Ne
  He215    1.0000 0.60923  0.15323  0.38738  Biso   1.000  He
  He216    1.0000 0.62914  0.17714  0.37633  Biso   1.000  He
  Ne216    1.0000 0.61450  0.19410  0.35019  Biso   1.000  Ne
  Ne217    1.0000 0.38733  0.44243  0.31962  Biso   1.000  Ne
  He217    1.0000 0.39494  0.41623  0.30054  Biso   1.000  He
  He218    1.0000 0.36749  0.40259  0.28821  Biso   1.000  He
  Ne218    1.0000 0.37469  0.37527  0.26868  Biso   1.000  Ne
  Ne219    1.0000 0.78851  0.53506  0.40474  Biso   1.000  Ne
  He219    1.0000 0.81357  0.55787  0.39841  Biso   1.000  He
  He220    1.0000 0.84564  0.54456  0.39747  Biso   1.000  He
  Ne220    1.0000 0.86798  0.56728  0.39028  Biso   1.000  Ne
  Ne221    1.0000 0.40032  0.82607  0.35249  Biso   1.000  Ne
  He221    1.0000 0.39023  0.83199  0.38269  Biso   1.000  He
  He222    1.0000 0.38038  0.86153  0.39385  Biso   1.000  He
  Ne222    1.0000 0.37257  0.86234  0.42428  Biso   1.000  Ne
  Ne223    1.0000 0.83509  0.84150  0.14165  Biso   1.000  Ne
  He223    1.0000 0.85578  0.86161  0.16020  Biso   1.000  He
  He224    1.0000 0.85551  0.89195  0.14534  Biso   1.000  He
  Ne224    1.0000 0.87252  0.91430  0.16196  Biso   1.000  Ne
  Ne225    1.0000 0.92115  0.07454  0.28149  Biso   1.000  Ne
  He225    1.0000 0.92167  0.08221  0.24924  Biso   1.000  He
  He226    1.0000 0.94917  0.07232  0.23366  Biso   1.000  He
  Ne226    1.0000 0.95236  0.07811  0.19963  Biso   1.000  Ne
  Ne227    1.0000 0.43410  0.10708  0.59869  Biso   1.000  Ne
  He227    1.0000 0.40469  0.09626  0.58832  Biso   1.000  He
  He228    1.0000 0.39876  0.06847  0.60449  Biso   1.000  He
  Ne228    1.0000 0.36809  0.05815  0.59711  Biso   1.000  Ne
  Ne229    1.0000 0.72774  0.83671  0.57369  Biso   1.000  Ne
  He229    1.0000 0.69945  0.84992  0.57856  Biso   1.000  He
  He230    1.0000 0.69862  0.88562  0.58314  Biso   1.000  He
  Ne230    1.0000 0.67080  0.89740  0.59713  Biso   1.000  Ne
  Ne231    1.0000 0.18025  0.33202  0.40963  Biso   1.000  Ne
  He231    1.0000 0.17603  0.36299  0.42358  Biso   1.000  He
  He232    1.0000 0.20310  0.37993  0.43800  Biso   1.000  He
  Ne232    1.0000 0.19968  0.40816  0.44353  Biso   1.000  Ne
  Ne233    1.0000 0.42982  0.58033  0.18735  Biso   1.000  Ne
  He233    1.0000 0.45578  0.56921  0.16904  Biso   1.000  He
  He234    1.0000 0.45100  0.56498  0.13559  Biso   1.000  He
  Ne234    1.0000 0.47766  0.55871  0.11763  Biso   1.000  Ne
  Ne235    1.0000 0.18720  0.37377  0.70400  Biso   1.000  Ne
  He235    1.0000 0.16985  0.34811  0.69621  Biso   1.000  He
  He236    1.0000 0.16138  0.32772  0.72151  Biso   1.000  He
  Ne236    1.0000 0.14361  0.30190  0.71335  Biso   1.000  Ne
  Ne237    1.0000 0.10965  0.44192  0.46487  Biso   1.000  Ne
  He237    1.0000 0.10398  0.40999  0.46222  Biso   1.000  He
  He238    1.0000 0.08503  0.40098  0.43808  Biso   1.000  He
  Ne238    1.0000 0.08230  0.36863  0.43998  Biso   1.000  Ne
  Ne239    1.0000 0.62791  0.88783  0.70794  Biso   1.000  Ne
  He239    1.0000 0.65113  0.87876  0.68908  Biso   1.000  He
  He240    1.0000 0.67555  0.90169  0.68911  Biso   1.000  He
  Ne240    1.0000 0.70365  0.89388  0.67487  Biso   1.000  Ne
  Ne241    1.0000 0.96837  0.88400  0.08263  Biso   1.000  Ne
  He241    1.0000 0.97358  0.88539  0.11534  Biso   1.000  He
  He242    1.0000 0.95391  0.90395  0.13233  Biso   1.000  He
  Ne242    1.0000 0.95787  0.90422  0.16507  Biso   1.000  Ne
  Ne243    1.0000 0.88469  0.31887  0.61894  Biso   1.000  Ne
  He243    1.0000 0.91650  0.32415  0.62448  Biso   1.000  He
  He244    1.0000 0.93936  0.31651  0.60266  Biso   1.000  He
  Ne244    1.0000 0.95306  0.28952  0.60990  Biso   1.000  Ne
  Ne245    1.0000 0.30692  0.80685  0.35273  Biso   1.000  Ne
  He245    1.0000 0.29207  0.78792  0.37718  Biso   1.000  He
  He246    1.0000 0.29788  0.80110  0.40804  Biso   1.000  He
  Ne246    1.0000 0.27810  0.78947  0.43176  Biso   1.000  Ne
  Ne247    1.0000 0.22181  0.58043  0.44577  Biso   1.000  Ne
  He247    1.0000 0.22193  0.58601  0.41349  Biso   1.000  He
  He248    1.0000 0.23914  0.56358  0.39946  Biso   1.000  He
  Ne248    1.0000 0.24159  0.56541  0.36493  Biso   1.000  Ne
  Ne249    1.0000 0.72779  0.82813  0.39214  Biso   1.000  Ne
  He249    1.0000 0.71487  0.85907  0.38400  Biso   1.000  He
  He250    1.0000 0.70035  0.87738  0.40733  Biso   1.000  He
  Ne250    1.0000 0.69757  0.90912  0.39806  Biso   1.000  Ne
  Ne251    1.0000 0.43333  0.92636  0.61108  Biso   1.000  Ne
  He251    1.0000 0.41875  0.91009  0.63551  Biso   1.000  He
  He252    1.0000 0.38389  0.91048  0.63629  Biso   1.000  He
  Ne252    1.0000 0.37077  0.89442  0.66152  Biso   1.000  Ne
  Ne253    1.0000 0.39896  0.31779  0.91723  Biso   1.000  Ne
  He253    1.0000 0.42694  0.30337  0.92644  Biso   1.000  He
  He254    1.0000 0.43665  0.28108  0.90623  Biso   1.000  He
  Ne254    1.0000 0.46251  0.26196  0.91202  Biso   1.000  Ne
  Ne255    1.0000 0.88659  0.16818  0.13732  Biso   1.000  Ne
  He255    1.0000 0.91063  0.18291  0.11765  Biso   1.000  He
  He256    1.0000 0.93446  0.16563  0.10894  Biso   1.000  He
  Ne256    1.0000 0.95873  0.18243  0.09062  Biso   1.000  Ne
  Ne257    1.0000 0.14839  0.12496  0.90718  Biso   1.000  Ne
  He257    1.0000 0.12912  0.10760  0.92926  Biso   1.000  He
  He258    1.0000 0.14020  0.07885  0.94193  Biso   1.000  He
  Ne258    1.0000 0.11934  0.06381  0.96460  Biso   1.000  Ne
  Ne259    1.0000 0.44543  0.00546  0.56143  Biso   1.000  Ne
  He259    1.0000 0.47565  0.01346  0.57832  Biso   1.000  He
  He260    1.0000 0.49460  0.98834  0.58257  Biso   1.000  He
  Ne260    1.0000 0.52603  0.99617  0.59375  Biso   1.000  Ne
  Ne261    1.0000 0.37327  0.77119  0.04948  Biso   1.000  Ne
  He261    1.0000 0.34915  0.76561  0.07362  Biso   1.000  He
  He262    1.0000 0.32794  0.78985  0.08233  Biso   1.000  He
  Ne262    1.0000 0.29932  0.79365  0.06716  Biso   1.000  Ne
  Ne263    1.0000 0.46832  0.55916  0.03024  Biso   1.000  Ne
  He263    1.0000 0.45137  0.53620  0.01106  Biso   1.000  He
  He264    1.0000 0.44355  0.50704  0.02653  Biso   1.000  He
  Ne264    1.0000 0.43558  0.48355  0.00529  Biso   1.000  Ne
  Ne265    1.0000 0.03059  0.95804  0.08948  Biso   1.000  Ne
  He265    1.0000 0.04712  0.93423  0.07435  Biso   1.000  He
  He266    1.0000 0.06722  0.91446  0.09315  Biso   1.000  He
  Ne266    1.0000 0.08502  0.89385  0.07155  Biso   1.000  Ne
  Ne267    1.0000 0.58495  0.85346  0.33891  Biso   1.000  Ne
  He267    1.0000 0.61402  0.86807  0.32902  Biso   1.000  He
  He268    1.0000 0.61273  0.90083  0.32131  Biso   1.000  He
  Ne268    1.0000 0.64494  0.91330  0.32169  Biso   1.000  Ne
  Ne269    1.0000 0.59370  0.67053  0.89209  Biso   1.000  Ne
  He269    1.0000 0.61644  0.65225  0.87614  Biso   1.000  He
  He270    1.0000 0.64385  0.66747  0.86811  Biso   1.000  He
  Ne270    1.0000 0.66464  0.64999  0.85012  Biso   1.000  Ne
  Ne271    1.0000 0.74033  0.33255  0.09017  Biso   1.000  Ne
  He271    1.0000 0.72997  0.35855  0.07394  Biso   1.000  He
  He272    1.0000 0.71163  0.37986  0.09103  Biso   1.000  He
  Ne272    1.0000 0.70916  0.40958  0.07393  Biso   1.000  Ne
  Ne273    1.0000 0.48509  0.30327  0.68373  Biso   1.000  Ne
  He273    1.0000 0.48233  0.28203  0.71013  Biso   1.000  He
  He274    1.0000 0.45198  0.27652  0.71870  Biso   1.000  He
  Ne274    1.0000 0.44805  0.25601  0.74465  Biso   1.000  Ne
  Ne275    1.0000 0.60440  0.85094  0.41774  Biso   1.000  Ne
  He275    1.0000 0.58446  0.87905  0.41918  Biso   1.000  He
  He276    1.0000 0.60216  0.90672  0.42619  Biso   1.000  He
  Ne276    1.0000 0.58494  0.93324  0.41873  Biso   1.000  Ne
  Ne277    1.0000 0.68636  0.54350  0.67274  Biso   1.000  Ne
  He277    1.0000 0.71153  0.54993  0.64816  Biso   1.000  He
  He278    1.0000 0.72276  0.58158  0.65305  Biso   1.000  He
  Ne278    1.0000 0.74560  0.59550  0.63221  Biso   1.000  Ne
  Ne279    1.0000 0.45101  0.21047  0.59020  Biso   1.000  Ne
  He279    1.0000 0.44872  0.19745  0.61985  Biso   1.000  He
  He280    1.0000 0.41769  0.19879  0.63477  Biso   1.000  He
  Ne280    1.0000 0.41538  0.18980  0.66584  Biso   1.000  Ne
