data_image0
_cell_length_a       47.868
_cell_length_b       46.6292
_cell_length_c       46.5968
_cell_angle_alpha    90
_cell_angle_beta     90
_cell_angle_gamma    90

_symmetry_space_group_name_H-M    "P 1"
_symmetry_int_tables_number       1

loop_
  _symmetry_equiv_pos_as_xyz
  'x, y, z'

loop_
  _atom_site_label
  _atom_site_occupancy
  _atom_site_fract_x
  _atom_site_fract_y
  _atom_site_fract_z
  _atom_site_thermal_displace_type
  _atom_site_B_iso_or_equiv
  _atom_site_type_symbol
  Ne1      1.0000 0.62331  0.05452  0.72840  Biso   1.000  Ne
  He1      1.0000 0.61821  0.08881  0.73177  Biso   1.000  He
  He2      1.0000 0.61011  0.10115  0.70351  Biso   1.000  He
  Ne2      1.0000 0.60106  0.13138  0.70317  Biso   1.000  Ne
  Ne3      1.0000 0.29946  0.91608  0.89200  Biso   1.000  Ne
  He3      1.0000 0.31514  0.94118  0.91074  Biso   1.000  He
  He4      1.0000 0.29721  0.96292  0.92933  Biso   1.000  He
  Ne4      1.0000 0.31448  0.98386  0.94725  Biso   1.000  Ne
  Ne5      1.0000 0.78857  0.38799  0.62014  Biso   1.000  Ne
  He5      1.0000 0.81632  0.37373  0.60613  Biso   1.000  He
  He6      1.0000 0.81620  0.34087  0.61374  Biso   1.000  He
  Ne6      1.0000 0.84668  0.32521  0.60670  Biso   1.000  Ne
  Ne7      1.0000 0.08386  0.35285  0.61391  Biso   1.000  Ne
  He7      1.0000 0.09673  0.36397  0.64296  Biso   1.000  He
  He8      1.0000 0.07777  0.38593  0.65892  Biso   1.000  He
  Ne8      1.0000 0.08548  0.38935  0.69142  Biso   1.000  Ne
  Ne9      1.0000 0.16681  0.70879  0.61946  Biso   1.000  Ne
  He9      1.0000 0.13901  0.70815  0.60385  Biso   1.000  He
  He10     1.0000 0.11834  0.72844  0.61895  Biso   1.000  He
  Ne10     1.0000 0.09056  0.73315  0.60244  Biso   1.000  Ne
  Ne11     1.0000 0.86210  0.82576  0.94094  Biso   1.000  Ne
  He11     1.0000 0.86187  0.85783  0.94536  Biso   1.000  He
  He12     1.0000 0.89113  0.87118  0.95154  Biso   1.000  He
  Ne12     1.0000 0.89074  0.90703  0.95066  Biso   1.000  Ne
  Ne13     1.0000 0.22088  0.06132  0.94518  Biso   1.000  Ne
  He13     1.0000 0.19021  0.07510  0.93948  Biso   1.000  He
  He14     1.0000 0.16445  0.05555  0.94403  Biso   1.000  He
  Ne14     1.0000 0.13614  0.06691  0.93518  Biso   1.000  Ne
  Ne15     1.0000 0.86932  0.28700  0.31141  Biso   1.000  Ne
  He15     1.0000 0.87834  0.26399  0.28958  Biso   1.000  He
  He16     1.0000 0.87726  0.23346  0.30311  Biso   1.000  He
  Ne16     1.0000 0.88558  0.21241  0.27899  Biso   1.000  Ne
  Ne17     1.0000 0.35873  0.40028  0.25149  Biso   1.000  Ne
  He17     1.0000 0.33615  0.38573  0.26953  Biso   1.000  He
  He18     1.0000 0.30886  0.37102  0.25299  Biso   1.000  He
  Ne18     1.0000 0.28822  0.35894  0.27719  Biso   1.000  Ne
  Ne19     1.0000 0.78751  0.05738  0.91461  Biso   1.000  Ne
  He19     1.0000 0.82242  0.06292  0.91671  Biso   1.000  He
  He20     1.0000 0.83009  0.05642  0.94560  Biso   1.000  He
  Ne20     1.0000 0.86249  0.06238  0.95097  Biso   1.000  Ne
  Ne21     1.0000 0.10308  0.59142  0.71115  Biso   1.000  Ne
  He21     1.0000 0.08112  0.57574  0.73042  Biso   1.000  He
  He22     1.0000 0.09323  0.55179  0.74880  Biso   1.000  He
  Ne22     1.0000 0.06793  0.54014  0.77063  Biso   1.000  Ne
  Ne23     1.0000 0.09937  0.87859  0.09645  Biso   1.000  Ne
  He23     1.0000 0.09660  0.88145  0.12787  Biso   1.000  He
  He24     1.0000 0.11094  0.90728  0.14204  Biso   1.000  He
  Ne24     1.0000 0.10833  0.90339  0.17556  Biso   1.000  Ne
  Ne25     1.0000 0.42379  0.38058  0.88726  Biso   1.000  Ne
  He25     1.0000 0.42310  0.36096  0.86035  Biso   1.000  He
  He26     1.0000 0.39287  0.35361  0.85002  Biso   1.000  He
  Ne26     1.0000 0.39027  0.34200  0.81852  Biso   1.000  Ne
  Ne27     1.0000 0.24851  0.12743  0.43573  Biso   1.000  Ne
  He27     1.0000 0.23380  0.15793  0.44158  Biso   1.000  He
  He28     1.0000 0.24768  0.18171  0.42433  Biso   1.000  He
  Ne28     1.0000 0.23610  0.21159  0.42568  Biso   1.000  Ne
  Ne29     1.0000 0.78070  0.42551  0.84256  Biso   1.000  Ne
  He29     1.0000 0.76382  0.40178  0.82553  Biso   1.000  He
  He30     1.0000 0.73304  0.39750  0.83605  Biso   1.000  He
  Ne30     1.0000 0.71401  0.37529  0.81830  Biso   1.000  Ne
  Ne31     1.0000 0.93874  0.27859  0.24113  Biso   1.000  Ne
  He31     1.0000 0.94408  0.24830  0.23171  Biso   1.000  He
  He32     1.0000 0.92683  0.23485  0.20738  Biso   1.000  He
  Ne32     1.0000 0.93039  0.20239  0.20498  Biso   1.000  Ne
  Ne33     1.0000 0.60502  0.52464  0.97640  Biso   1.000  Ne
  He33     1.0000 0.58932  0.53394  0.00386  Biso   1.000  He
  He34     1.0000 0.55722  0.53948  0.00123  Biso   1.000  He
  Ne34     1.0000 0.54048  0.55467  0.02407  Biso   1.000  Ne
  Ne35     1.0000 0.41228  0.72828  0.18752  Biso   1.000  Ne
  He35     1.0000 0.43144  0.71824  0.21340  Biso   1.000  He
  He36     1.0000 0.42277  0.68936  0.22751  Biso   1.000  He
  Ne36     1.0000 0.43113  0.68915  0.25940  Biso   1.000  Ne
  Ne37     1.0000 0.56545  0.42869  0.09781  Biso   1.000  Ne
  He37     1.0000 0.53812  0.40993  0.10456  Biso   1.000  He
  He38     1.0000 0.50879  0.42558  0.10255  Biso   1.000  He
  Ne38     1.0000 0.48236  0.40726  0.11195  Biso   1.000  Ne
  Ne39     1.0000 0.35768  0.23354  0.44833  Biso   1.000  Ne
  He39     1.0000 0.33704  0.25754  0.44862  Biso   1.000  He
  He40     1.0000 0.31815  0.25866  0.47601  Biso   1.000  He
  Ne40     1.0000 0.30020  0.28684  0.47503  Biso   1.000  Ne
  Ne41     1.0000 0.90967  0.40954  0.74634  Biso   1.000  Ne
  He41     1.0000 0.91688  0.41289  0.77715  Biso   1.000  He
  He42     1.0000 0.89331  0.42791  0.79951  Biso   1.000  He
  Ne42     1.0000 0.90052  0.42679  0.83318  Biso   1.000  Ne
  Ne43     1.0000 0.39764  0.56575  0.17711  Biso   1.000  Ne
  He43     1.0000 0.41838  0.56989  0.15129  Biso   1.000  He
  He44     1.0000 0.44138  0.59382  0.15157  Biso   1.000  He
  Ne44     1.0000 0.46000  0.59740  0.12313  Biso   1.000  Ne
  Ne45     1.0000 0.61132  0.54009  0.08905  Biso   1.000  Ne
  He45     1.0000 0.61716  0.53150  0.11954  Biso   1.000  He
  He46     1.0000 0.60186  0.55187  0.14045  Biso   1.000  He
  Ne46     1.0000 0.60789  0.54771  0.17380  Biso   1.000  Ne
  Ne47     1.0000 0.18570  0.02087  0.72663  Biso   1.000  Ne
  He47     1.0000 0.16617  0.99541  0.71186  Biso   1.000  He
  He48     1.0000 0.18285  0.96963  0.70334  Biso   1.000  He
  Ne48     1.0000 0.17105  0.94667  0.68106  Biso   1.000  Ne
  Ne49     1.0000 0.04030  0.57121  0.53719  Biso   1.000  Ne
  He49     1.0000 0.03476  0.55991  0.50569  Biso   1.000  He
  He50     1.0000 0.06180  0.55955  0.48653  Biso   1.000  He
  Ne50     1.0000 0.05717  0.53922  0.46205  Biso   1.000  Ne
  Ne51     1.0000 0.34619  0.63234  0.11130  Biso   1.000  Ne
  He51     1.0000 0.32272  0.60958  0.11571  Biso   1.000  He
  He52     1.0000 0.33276  0.58471  0.12848  Biso   1.000  He
  Ne52     1.0000 0.31206  0.55744  0.11966  Biso   1.000  Ne
  Ne53     1.0000 0.19279  0.55435  0.68495  Biso   1.000  Ne
  He53     1.0000 0.19333  0.58197  0.66401  Biso   1.000  He
  He54     1.0000 0.16682  0.58509  0.64575  Biso   1.000  He
  Ne54     1.0000 0.17022  0.60881  0.62347  Biso   1.000  Ne
  Ne55     1.0000 0.56015  0.16808  0.90302  Biso   1.000  Ne
  He55     1.0000 0.57134  0.16449  0.87228  Biso   1.000  He
  He56     1.0000 0.55072  0.15369  0.84662  Biso   1.000  He
  Ne56     1.0000 0.56750  0.15193  0.81670  Biso   1.000  Ne
  Ne57     1.0000 0.42672  0.95157  0.53914  Biso   1.000  Ne
  He57     1.0000 0.43908  0.92633  0.55795  Biso   1.000  He
  He58     1.0000 0.46381  0.91305  0.54150  Biso   1.000  He
  Ne58     1.0000 0.47911  0.89114  0.55955  Biso   1.000  Ne
  Ne59     1.0000 0.38900  0.74715  0.94666  Biso   1.000  Ne
  He59     1.0000 0.40335  0.72158  0.93201  Biso   1.000  He
  He60     1.0000 0.40002  0.69289  0.95037  Biso   1.000  He
  Ne60     1.0000 0.41275  0.66594  0.93695  Biso   1.000  Ne
  Ne61     1.0000 0.10118  0.74326  0.43434  Biso   1.000  Ne
  He61     1.0000 0.10309  0.71262  0.44391  Biso   1.000  He
  He62     1.0000 0.13323  0.69748  0.44133  Biso   1.000  He
  Ne62     1.0000 0.13367  0.66695  0.44987  Biso   1.000  Ne
  Ne63     1.0000 0.60391  0.79940  0.28952  Biso   1.000  Ne
  He63     1.0000 0.60650  0.76799  0.30001  Biso   1.000  He
  He64     1.0000 0.63476  0.75084  0.29519  Biso   1.000  He
  Ne64     1.0000 0.63153  0.71897  0.30274  Biso   1.000  Ne
  Ne65     1.0000 0.09551  0.08533  0.85133  Biso   1.000  Ne
  He65     1.0000 0.08700  0.10591  0.82706  Biso   1.000  He
  He66     1.0000 0.09927  0.13912  0.82665  Biso   1.000  He
  Ne66     1.0000 0.09013  0.15898  0.80200  Biso   1.000  Ne
  Ne67     1.0000 0.10676  0.74090  0.74859  Biso   1.000  Ne
  He67     1.0000 0.08260  0.75556  0.73326  Biso   1.000  He
  He68     1.0000 0.08858  0.78759  0.72926  Biso   1.000  He
  Ne68     1.0000 0.06331  0.80567  0.71858  Biso   1.000  Ne
  Ne69     1.0000 0.11834  0.80960  0.15069  Biso   1.000  Ne
  He69     1.0000 0.10896  0.80455  0.18082  Biso   1.000  He
  He70     1.0000 0.12970  0.81551  0.20303  Biso   1.000  He
  Ne70     1.0000 0.11744  0.80740  0.23378  Biso   1.000  Ne
  Ne71     1.0000 0.65070  0.39237  0.85009  Biso   1.000  Ne
  He71     1.0000 0.62523  0.38851  0.82978  Biso   1.000  He
  He72     1.0000 0.59699  0.37916  0.84164  Biso   1.000  He
  Ne72     1.0000 0.57188  0.37994  0.82226  Biso   1.000  Ne
  Ne73     1.0000 0.91150  0.40569  0.37746  Biso   1.000  Ne
  He73     1.0000 0.92821  0.41484  0.34933  Biso   1.000  He
  He74     1.0000 0.92260  0.39416  0.32463  Biso   1.000  He
  Ne74     1.0000 0.94204  0.39912  0.29597  Biso   1.000  Ne
  Ne75     1.0000 0.44007  0.53731  0.05237  Biso   1.000  Ne
  He75     1.0000 0.44152  0.50585  0.05082  Biso   1.000  He
  He76     1.0000 0.44215  0.49350  0.01936  Biso   1.000  He
  Ne76     1.0000 0.44318  0.45937  0.01926  Biso   1.000  Ne
  Ne77     1.0000 0.08469  0.25947  0.45223  Biso   1.000  Ne
  He77     1.0000 0.09112  0.28790  0.43692  Biso   1.000  He
  He78     1.0000 0.12546  0.29528  0.43464  Biso   1.000  He
  Ne78     1.0000 0.13104  0.32765  0.43093  Biso   1.000  Ne
  Ne79     1.0000 0.10508  0.30377  0.70820  Biso   1.000  Ne
  He79     1.0000 0.08742  0.27874  0.69625  Biso   1.000  He
  He80     1.0000 0.10419  0.26034  0.67219  Biso   1.000  He
  Ne80     1.0000 0.09192  0.23339  0.65589  Biso   1.000  Ne
  Ne81     1.0000 0.54744  0.94956  0.58120  Biso   1.000  Ne
  He81     1.0000 0.56695  0.94309  0.60604  Biso   1.000  He
  He82     1.0000 0.56426  0.91136  0.61652  Biso   1.000  He
  Ne82     1.0000 0.58184  0.90682  0.64607  Biso   1.000  Ne
  Ne83     1.0000 0.91883  0.73759  0.36247  Biso   1.000  Ne
  He83     1.0000 0.91771  0.71165  0.34053  Biso   1.000  He
  He84     1.0000 0.92949  0.68451  0.35255  Biso   1.000  He
  Ne84     1.0000 0.93158  0.66338  0.32797  Biso   1.000  Ne
  Ne85     1.0000 0.92936  0.95687  0.05395  Biso   1.000  Ne
  He85     1.0000 0.94355  0.98310  0.04070  Biso   1.000  He
  He86     1.0000 0.92742  0.01076  0.04806  Biso   1.000  He
  Ne86     1.0000 0.94009  0.03732  0.02863  Biso   1.000  Ne
  Ne87     1.0000 0.68080  0.31676  0.71348  Biso   1.000  Ne
  He87     1.0000 0.66640  0.30375  0.74178  Biso   1.000  He
  He88     1.0000 0.68536  0.28388  0.76089  Biso   1.000  He
  Ne88     1.0000 0.66937  0.27324  0.78949  Biso   1.000  Ne
  Ne89     1.0000 0.40459  0.06170  0.76980  Biso   1.000  Ne
  He89     1.0000 0.41879  0.06740  0.73988  Biso   1.000  He
  He90     1.0000 0.41113  0.04587  0.71327  Biso   1.000  He
  Ne90     1.0000 0.42992  0.05306  0.68430  Biso   1.000  Ne
  Ne91     1.0000 0.09612  0.04554  0.16415  Biso   1.000  Ne
  He91     1.0000 0.07646  0.03966  0.13931  Biso   1.000  He
  He92     1.0000 0.09233  0.04069  0.10925  Biso   1.000  He
  Ne92     1.0000 0.07690  0.03452  0.08119  Biso   1.000  Ne
  Ne93     1.0000 0.93639  0.32560  0.40506  Biso   1.000  Ne
  He93     1.0000 0.91131  0.33429  0.42472  Biso   1.000  He
  He94     1.0000 0.88346  0.31618  0.41863  Biso   1.000  He
  Ne94     1.0000 0.85432  0.32570  0.43260  Biso   1.000  Ne
  Ne95     1.0000 0.70282  0.56950  0.43008  Biso   1.000  Ne
  He95     1.0000 0.72898  0.58728  0.44398  Biso   1.000  He
  He96     1.0000 0.72876  0.61861  0.44259  Biso   1.000  He
  Ne96     1.0000 0.75667  0.63099  0.45275  Biso   1.000  Ne
  Ne97     1.0000 0.32961  0.04113  0.73253  Biso   1.000  Ne
  He97     1.0000 0.32098  0.06058  0.70356  Biso   1.000  He
  He98     1.0000 0.30872  0.04280  0.67785  Biso   1.000  He
  Ne98     1.0000 0.29683  0.06518  0.65504  Biso   1.000  Ne
  Ne99     1.0000 0.66875  0.08034  0.44533  Biso   1.000  Ne
  He99     1.0000 0.64202  0.10073  0.44317  Biso   1.000  He
  He100    1.0000 0.61449  0.08260  0.45036  Biso   1.000  He
  Ne100    1.0000 0.58620  0.10195  0.44844  Biso   1.000  Ne
  Ne101    1.0000 0.26734  0.37324  0.12599  Biso   1.000  Ne
  He101    1.0000 0.29046  0.39334  0.13531  Biso   1.000  He
  He102    1.0000 0.32163  0.38690  0.12439  Biso   1.000  He
  Ne102    1.0000 0.34273  0.41119  0.12915  Biso   1.000  Ne
  Ne103    1.0000 0.60515  0.42770  0.29900  Biso   1.000  Ne
  He103    1.0000 0.58841  0.44663  0.32033  Biso   1.000  He
  He104    1.0000 0.58090  0.47468  0.30495  Biso   1.000  He
  Ne104    1.0000 0.56267  0.49640  0.32265  Biso   1.000  Ne
  Ne105    1.0000 0.92720  0.88991  0.16312  Biso   1.000  Ne
  He105    1.0000 0.94544  0.87056  0.14139  Biso   1.000  He
  He106    1.0000 0.93181  0.86427  0.11303  Biso   1.000  He
  Ne106    1.0000 0.95017  0.84314  0.09287  Biso   1.000  Ne
  Ne107    1.0000 0.59330  0.83020  0.64033  Biso   1.000  Ne
  He107    1.0000 0.60326  0.82039  0.67118  Biso   1.000  He
  He108    1.0000 0.60638  0.84617  0.69355  Biso   1.000  He
  Ne108    1.0000 0.61018  0.83427  0.72433  Biso   1.000  Ne
  Ne109    1.0000 0.44164  0.78189  0.66980  Biso   1.000  Ne
  He109    1.0000 0.43022  0.75861  0.64752  Biso   1.000  He
  He110    1.0000 0.42401  0.77075  0.61910  Biso   1.000  He
  Ne110    1.0000 0.41913  0.74849  0.59499  Biso   1.000  Ne
  Ne111    1.0000 0.20958  0.39346  0.45074  Biso   1.000  Ne
  He111    1.0000 0.19202  0.40004  0.42464  Biso   1.000  He
  He112    1.0000 0.20560  0.38840  0.39773  Biso   1.000  He
  Ne112    1.0000 0.18503  0.39394  0.37215  Biso   1.000  Ne
  Ne113    1.0000 0.59540  0.25698  0.87148  Biso   1.000  Ne
  He113    1.0000 0.59927  0.27131  0.90033  Biso   1.000  He
  He114    1.0000 0.59673  0.24917  0.92476  Biso   1.000  He
  Ne114    1.0000 0.59668  0.26125  0.95449  Biso   1.000  Ne
  Ne115    1.0000 0.93441  0.75001  0.15711  Biso   1.000  Ne
  He115    1.0000 0.93503  0.76445  0.12620  Biso   1.000  He
  He116    1.0000 0.90478  0.77185  0.11870  Biso   1.000  He
  Ne116    1.0000 0.90121  0.78347  0.09087  Biso   1.000  Ne
  Ne117    1.0000 0.31852  0.37908  0.87246  Biso   1.000  Ne
  He117    1.0000 0.30859  0.37735  0.90473  Biso   1.000  He
  He118    1.0000 0.33294  0.38030  0.92630  Biso   1.000  He
  Ne118    1.0000 0.32671  0.38426  0.95944  Biso   1.000  Ne
  Ne119    1.0000 0.11028  0.17553  0.18931  Biso   1.000  Ne
  He119    1.0000 0.10071  0.14936  0.17006  Biso   1.000  He
  He120    1.0000 0.11000  0.15387  0.13956  Biso   1.000  He
  Ne120    1.0000 0.10345  0.12504  0.12328  Biso   1.000  Ne
  Ne121    1.0000 0.44422  0.24422  0.96342  Biso   1.000  Ne
  He121    1.0000 0.43958  0.26683  0.93907  Biso   1.000  He
  He122    1.0000 0.43279  0.29669  0.95219  Biso   1.000  He
  Ne122    1.0000 0.42128  0.31595  0.92918  Biso   1.000  Ne
  Ne123    1.0000 0.93179  0.11650  0.92177  Biso   1.000  Ne
  He123    1.0000 0.92311  0.09744  0.89517  Biso   1.000  He
  He124    1.0000 0.93046  0.06607  0.89710  Biso   1.000  He
  Ne124    1.0000 0.92288  0.04699  0.86748  Biso   1.000  Ne
  Ne125    1.0000 0.21483  0.88324  0.86358  Biso   1.000  Ne
  He125    1.0000 0.21012  0.87296  0.89510  Biso   1.000  He
  He126    1.0000 0.18847  0.84894  0.89593  Biso   1.000  He
  Ne126    1.0000 0.18872  0.83588  0.92705  Biso   1.000  Ne
  Ne127    1.0000 0.19100  0.87883  0.10113  Biso   1.000  Ne
  He127    1.0000 0.21464  0.85507  0.09564  Biso   1.000  He
  He128    1.0000 0.20762  0.82197  0.10755  Biso   1.000  He
  Ne128    1.0000 0.23345  0.80126  0.10134  Biso   1.000  Ne
  Ne129    1.0000 0.81166  0.62962  0.61466  Biso   1.000  Ne
  He129    1.0000 0.82580  0.65720  0.62643  Biso   1.000  He
  He130    1.0000 0.85990  0.65900  0.61942  Biso   1.000  He
  Ne130    1.0000 0.87033  0.69026  0.63017  Biso   1.000  Ne
  Ne131    1.0000 0.36984  0.05735  0.60380  Biso   1.000  Ne
  He131    1.0000 0.39276  0.07763  0.59779  Biso   1.000  He
  He132    1.0000 0.42252  0.06472  0.59677  Biso   1.000  He
  Ne132    1.0000 0.44798  0.08716  0.59568  Biso   1.000  Ne
  Ne133    1.0000 0.52278  0.78154  0.02219  Biso   1.000  Ne
  He133    1.0000 0.49590  0.78405  0.04243  Biso   1.000  He
  He134    1.0000 0.49186  0.81483  0.05790  Biso   1.000  He
  Ne134    1.0000 0.46231  0.81845  0.07465  Biso   1.000  Ne
  Ne135    1.0000 0.88284  0.56511  0.44768  Biso   1.000  Ne
  He135    1.0000 0.85554  0.56408  0.43225  Biso   1.000  He
  He136    1.0000 0.85672  0.57201  0.39996  Biso   1.000  He
  Ne136    1.0000 0.82528  0.57279  0.38668  Biso   1.000  Ne
  Ne137    1.0000 0.55789  0.92827  0.80870  Biso   1.000  Ne
  He137    1.0000 0.57150  0.90186  0.81878  Biso   1.000  He
  He138    1.0000 0.59987  0.89282  0.80314  Biso   1.000  He
  Ne138    1.0000 0.61099  0.86240  0.81338  Biso   1.000  Ne
  Ne139    1.0000 0.49735  0.51154  0.94269  Biso   1.000  Ne
  He139    1.0000 0.48994  0.53884  0.96165  Biso   1.000  He
  He140    1.0000 0.46052  0.55381  0.95407  Biso   1.000  He
  Ne140    1.0000 0.45080  0.58039  0.97419  Biso   1.000  Ne
  Ne141    1.0000 0.24690  0.89999  0.47877  Biso   1.000  Ne
  He141    1.0000 0.24702  0.89570  0.44471  Biso   1.000  He
  He142    1.0000 0.23942  0.86423  0.43626  Biso   1.000  He
  Ne142    1.0000 0.24972  0.85716  0.40740  Biso   1.000  Ne
  Ne143    1.0000 0.89795  0.15826  0.13067  Biso   1.000  Ne
  He143    1.0000 0.92491  0.14181  0.12144  Biso   1.000  He
  He144    1.0000 0.92138  0.11112  0.11366  Biso   1.000  He
  Ne144    1.0000 0.94982  0.09603  0.10237  Biso   1.000  Ne
  Ne145    1.0000 0.41768  0.85736  0.60326  Biso   1.000  Ne
  He145    1.0000 0.43262  0.88052  0.62345  Biso   1.000  He
  He146    1.0000 0.43218  0.87225  0.65445  Biso   1.000  He
  Ne146    1.0000 0.44234  0.89325  0.67902  Biso   1.000  Ne
  Ne147    1.0000 0.46285  0.11769  0.85342  Biso   1.000  Ne
  He147    1.0000 0.44274  0.12498  0.82674  Biso   1.000  He
  He148    1.0000 0.43441  0.15696  0.82500  Biso   1.000  He
  Ne148    1.0000 0.41311  0.16577  0.80168  Biso   1.000  Ne
  Ne149    1.0000 0.29506  0.55775  0.93739  Biso   1.000  Ne
  He149    1.0000 0.27502  0.57736  0.91950  Biso   1.000  He
  He150    1.0000 0.27953  0.57300  0.88674  Biso   1.000  He
  Ne150    1.0000 0.26009  0.58800  0.86722  Biso   1.000  Ne
  Ne151    1.0000 0.69087  0.56772  0.92720  Biso   1.000  Ne
  He151    1.0000 0.67741  0.59610  0.93701  Biso   1.000  He
  He152    1.0000 0.69554  0.62178  0.92612  Biso   1.000  He
  Ne152    1.0000 0.68084  0.65089  0.93313  Biso   1.000  Ne
  Ne153    1.0000 0.43258  0.59755  0.23617  Biso   1.000  Ne
  He153    1.0000 0.44210  0.58955  0.26805  Biso   1.000  He
  He154    1.0000 0.46721  0.56881  0.26852  Biso   1.000  He
  Ne154    1.0000 0.47396  0.56481  0.30010  Biso   1.000  Ne
  Ne155    1.0000 0.42627  0.13450  0.68840  Biso   1.000  Ne
  He155    1.0000 0.41154  0.14222  0.65963  Biso   1.000  He
  He156    1.0000 0.42455  0.16706  0.64508  Biso   1.000  He
  Ne156    1.0000 0.40841  0.17449  0.61971  Biso   1.000  Ne
  Ne157    1.0000 0.82047  0.87946  0.16538  Biso   1.000  Ne
  He157    1.0000 0.82167  0.86258  0.13861  Biso   1.000  He
  He158    1.0000 0.85010  0.86907  0.12103  Biso   1.000  He
  Ne158    1.0000 0.84993  0.85899  0.08951  Biso   1.000  Ne
  Ne159    1.0000 0.19405  0.24228  0.61867  Biso   1.000  Ne
  He159    1.0000 0.17188  0.26022  0.60517  Biso   1.000  He
  He160    1.0000 0.16801  0.29177  0.61554  Biso   1.000  He
  Ne160    1.0000 0.14661  0.31333  0.60237  Biso   1.000  Ne
  Ne161    1.0000 0.82012  0.41721  0.42602  Biso   1.000  Ne
  He161    1.0000 0.82857  0.40432  0.39616  Biso   1.000  He
  He162    1.0000 0.80266  0.39421  0.37852  Biso   1.000  He
  Ne162    1.0000 0.81608  0.38463  0.34869  Biso   1.000  Ne
  Ne163    1.0000 0.67794  0.79460  0.63390  Biso   1.000  Ne
  He163    1.0000 0.69551  0.81778  0.65391  Biso   1.000  He
  He164    1.0000 0.70387  0.84540  0.63817  Biso   1.000  He
  Ne164    1.0000 0.72298  0.86668  0.65593  Biso   1.000  Ne
  Ne165    1.0000 0.95338  0.84794  0.31853  Biso   1.000  Ne
  He165    1.0000 0.95398  0.86944  0.29263  Biso   1.000  He
  He166    1.0000 0.93628  0.85598  0.26784  Biso   1.000  He
  Ne166    1.0000 0.93617  0.87297  0.24204  Biso   1.000  Ne
  Ne167    1.0000 0.95365  0.23183  0.86381  Biso   1.000  Ne
  He167    1.0000 0.93935  0.21497  0.88825  Biso   1.000  He
  He168    1.0000 0.93855  0.23018  0.91874  Biso   1.000  He
  Ne168    1.0000 0.92551  0.21374  0.94753  Biso   1.000  Ne
  Ne169    1.0000 0.84085  0.67840  0.44413  Biso   1.000  Ne
  He169    1.0000 0.87127  0.67111  0.43165  Biso   1.000  He
  He170    1.0000 0.89632  0.67869  0.45401  Biso   1.000  He
  Ne170    1.0000 0.92470  0.66695  0.44452  Biso   1.000  Ne
  Ne171    1.0000 0.60621  0.75003  0.78171  Biso   1.000  Ne
  He171    1.0000 0.62230  0.72494  0.77092  Biso   1.000  He
  He172    1.0000 0.65126  0.73269  0.75555  Biso   1.000  He
  Ne172    1.0000 0.67754  0.72516  0.77312  Biso   1.000  Ne
  Ne173    1.0000 0.15716  0.16405  0.95609  Biso   1.000  Ne
  He173    1.0000 0.13244  0.14666  0.94408  Biso   1.000  He
  He174    1.0000 0.10414  0.16275  0.93981  Biso   1.000  He
  Ne174    1.0000 0.08391  0.14292  0.92588  Biso   1.000  Ne
  Ne175    1.0000 0.20894  0.37106  0.67111  Biso   1.000  Ne
  He175    1.0000 0.18244  0.38548  0.66088  Biso   1.000  He
  He176    1.0000 0.18601  0.38921  0.62618  Biso   1.000  He
  Ne176    1.0000 0.16052  0.40129  0.60943  Biso   1.000  Ne
  Ne177    1.0000 0.01139  0.88979  0.06492  Biso   1.000  Ne
  He177    1.0000 0.99608  0.91138  0.08136  Biso   1.000  He
  He178    1.0000 0.01333  0.92868  0.10058  Biso   1.000  He
  Ne178    1.0000 0.99515  0.95590  0.11312  Biso   1.000  Ne
  Ne179    1.0000 0.85314  0.59420  0.67684  Biso   1.000  Ne
  He179    1.0000 0.88278  0.59780  0.66092  Biso   1.000  He
  He180    1.0000 0.90854  0.60007  0.68209  Biso   1.000  He
  Ne180    1.0000 0.93906  0.59920  0.66866  Biso   1.000  Ne
  Ne181    1.0000 0.38687  0.87081  0.45786  Biso   1.000  Ne
  He181    1.0000 0.39273  0.84023  0.45377  Biso   1.000  He
  He182    1.0000 0.42221  0.83467  0.43675  Biso   1.000  He
  Ne182    1.0000 0.43175  0.80249  0.43609  Biso   1.000  Ne
  Ne183    1.0000 0.34824  0.89102  0.64376  Biso   1.000  Ne
  He183    1.0000 0.32768  0.87009  0.63425  Biso   1.000  He
  He184    1.0000 0.34022  0.84114  0.62279  Biso   1.000  He
  Ne184    1.0000 0.31667  0.81453  0.61491  Biso   1.000  Ne
  Ne185    1.0000 0.67795  0.05371  0.84013  Biso   1.000  Ne
  He185    1.0000 0.65417  0.05444  0.81577  Biso   1.000  He
  He186    1.0000 0.62447  0.06394  0.82710  Biso   1.000  He
  Ne186    1.0000 0.61837  0.09625  0.82719  Biso   1.000  Ne
  Ne187    1.0000 0.25111  0.84465  0.73930  Biso   1.000  Ne
  He187    1.0000 0.27889  0.84784  0.72479  Biso   1.000  He
  He188    1.0000 0.30228  0.86685  0.73897  Biso   1.000  He
  Ne188    1.0000 0.33118  0.87301  0.72012  Biso   1.000  Ne
  Ne189    1.0000 0.85991  0.02008  0.72753  Biso   1.000  Ne
  He189    1.0000 0.85474  0.03619  0.69886  Biso   1.000  He
  He190    1.0000 0.82264  0.04210  0.69193  Biso   1.000  He
  Ne190    1.0000 0.81678  0.05368  0.66009  Biso   1.000  Ne
  Ne191    1.0000 0.97511  0.54764  0.42828  Biso   1.000  Ne
  He191    1.0000 0.96509  0.56382  0.40184  Biso   1.000  He
  He192    1.0000 0.94839  0.59116  0.40772  Biso   1.000  He
  Ne192    1.0000 0.93966  0.60624  0.38097  Biso   1.000  Ne
  Ne193    1.0000 0.11636  0.69220  0.30255  Biso   1.000  Ne
  He193    1.0000 0.10826  0.71762  0.28809  Biso   1.000  He
  He194    1.0000 0.10573  0.74014  0.31205  Biso   1.000  He
  Ne194    1.0000 0.09367  0.76623  0.30053  Biso   1.000  Ne
  Ne195    1.0000 0.60512  0.04568  0.63561  Biso   1.000  Ne
  He195    1.0000 0.60621  0.02756  0.60861  Biso   1.000  He
  He196    1.0000 0.60389  0.04336  0.58169  Biso   1.000  He
  Ne196    1.0000 0.60962  0.02141  0.55869  Biso   1.000  Ne
  Ne197    1.0000 0.09240  0.83593  0.94492  Biso   1.000  Ne
  He197    1.0000 0.10100  0.86701  0.95473  Biso   1.000  He
  He198    1.0000 0.08794  0.89198  0.94064  Biso   1.000  He
  Ne198    1.0000 0.09732  0.92042  0.95224  Biso   1.000  Ne
  Ne199    1.0000 0.11511  0.62182  0.36398  Biso   1.000  Ne
  He199    1.0000 0.12152  0.59349  0.37621  Biso   1.000  He
  He200    1.0000 0.12477  0.56877  0.35420  Biso   1.000  He
  Ne200    1.0000 0.15601  0.56195  0.34431  Biso   1.000  Ne
  Ne201    1.0000 0.41777  0.26805  0.12241  Biso   1.000  Ne
  He201    1.0000 0.42458  0.29873  0.11212  Biso   1.000  He
  He202    1.0000 0.40448  0.32267  0.12160  Biso   1.000  He
  Ne202    1.0000 0.41172  0.35155  0.11314  Biso   1.000  Ne
  Ne203    1.0000 0.94710  0.33165  0.61512  Biso   1.000  Ne
  He203    1.0000 0.92657  0.31836  0.63779  Biso   1.000  He
  He204    1.0000 0.91620  0.28710  0.63631  Biso   1.000  He
  Ne204    1.0000 0.89673  0.27757  0.66254  Biso   1.000  Ne
  Ne205    1.0000 0.89061  0.59896  0.28937  Biso   1.000  Ne
  He205    1.0000 0.90664  0.57647  0.30706  Biso   1.000  He
  He206    1.0000 0.93487  0.57293  0.29233  Biso   1.000  He
  Ne206    1.0000 0.95510  0.55161  0.30756  Biso   1.000  Ne
  Ne207    1.0000 0.58169  0.54361  0.90705  Biso   1.000  Ne
  He207    1.0000 0.60042  0.56922  0.91709  Biso   1.000  He
  He208    1.0000 0.57930  0.59622  0.92536  Biso   1.000  He
  Ne208    1.0000 0.59216  0.62511  0.93631  Biso   1.000  Ne
  Ne209    1.0000 0.69885  0.54413  0.29103  Biso   1.000  Ne
  He209    1.0000 0.68790  0.52969  0.31847  Biso   1.000  He
  He210    1.0000 0.65905  0.51478  0.31496  Biso   1.000  He
  Ne210    1.0000 0.65047  0.49567  0.34233  Biso   1.000  Ne
  Ne211    1.0000 0.42835  0.15730  0.39705  Biso   1.000  Ne
  He211    1.0000 0.39794  0.14516  0.40306  Biso   1.000  He
  He212    1.0000 0.38545  0.14543  0.43281  Biso   1.000  He
  Ne212    1.0000 0.35376  0.13610  0.43925  Biso   1.000  Ne
  Ne213    1.0000 0.32971  0.28651  0.11849  Biso   1.000  Ne
  He213    1.0000 0.30119  0.29401  0.13349  Biso   1.000  He
  He214    1.0000 0.27531  0.27755  0.12018  Biso   1.000  He
  Ne214    1.0000 0.24556  0.28898  0.12982  Biso   1.000  Ne
  Ne215    1.0000 0.70623  0.89608  0.43690  Biso   1.000  Ne
  He215    1.0000 0.67913  0.89265  0.41687  Biso   1.000  He
  He216    1.0000 0.68773  0.87895  0.38676  Biso   1.000  He
  Ne216    1.0000 0.66104  0.87772  0.36742  Biso   1.000  Ne
  Ne217    1.0000 0.59321  0.69818  0.14079  Biso   1.000  Ne
  He217    1.0000 0.61077  0.66978  0.13767  Biso   1.000  He
  He218    1.0000 0.61871  0.65884  0.10755  Biso   1.000  He
  Ne218    1.0000 0.63008  0.63019  0.10720  Biso   1.000  Ne
  Ne219    1.0000 0.93811  0.79799  0.93997  Biso   1.000  Ne
  He219    1.0000 0.92681  0.80023  0.91105  Biso   1.000  He
  He220    1.0000 0.94288  0.78254  0.88666  Biso   1.000  He
  Ne220    1.0000 0.91986  0.77639  0.86097  Biso   1.000  Ne
  Ne221    1.0000 0.16256  0.85340  0.79349  Biso   1.000  Ne
  He221    1.0000 0.13654  0.86038  0.81404  Biso   1.000  He
  He222    1.0000 0.11909  0.88555  0.80368  Biso   1.000  He
  Ne222    1.0000 0.09954  0.89646  0.82627  Biso   1.000  Ne
  Ne223    1.0000 0.95069  0.43113  0.46582  Biso   1.000  Ne
  He223    1.0000 0.93382  0.46010  0.46577  Biso   1.000  He
  He224    1.0000 0.94289  0.48068  0.49157  Biso   1.000  He
  Ne224    1.0000 0.92851  0.50824  0.48992  Biso   1.000  Ne
  Ne225    1.0000 0.62989  0.59658  0.73033  Biso   1.000  Ne
  He225    1.0000 0.63316  0.56445  0.73462  Biso   1.000  He
  He226    1.0000 0.60532  0.55030  0.73419  Biso   1.000  He
  Ne226    1.0000 0.60620  0.51750  0.73694  Biso   1.000  Ne
  Ne227    1.0000 0.74541  0.10399  0.10298  Biso   1.000  Ne
  He227    1.0000 0.76710  0.12625  0.09884  Biso   1.000  He
  He228    1.0000 0.77403  0.14708  0.12440  Biso   1.000  He
  Ne228    1.0000 0.78854  0.17529  0.11644  Biso   1.000  Ne
  Ne229    1.0000 0.58250  0.39149  0.93331  Biso   1.000  Ne
  He229    1.0000 0.54987  0.39267  0.94261  Biso   1.000  He
  He230    1.0000 0.53680  0.42065  0.95506  Biso   1.000  He
  Ne230    1.0000 0.50638  0.41771  0.96592  Biso   1.000  Ne
  Ne231    1.0000 0.98161  0.39232  0.56755  Biso   1.000  Ne
  He231    1.0000 0.95617  0.41617  0.57204  Biso   1.000  He
  He232    1.0000 0.92638  0.40398  0.56909  Biso   1.000  He
  Ne232    1.0000 0.90119  0.42316  0.57409  Biso   1.000  Ne
  Ne233    1.0000 0.90231  0.03092  0.12835  Biso   1.000  Ne
  He233    1.0000 0.87794  0.04683  0.11110  Biso   1.000  He
  He234    1.0000 0.85175  0.04746  0.12700  Biso   1.000  He
  Ne234    1.0000 0.82520  0.05551  0.10858  Biso   1.000  Ne
  Ne235    1.0000 0.74579  0.56747  0.69608  Biso   1.000  Ne
  He235    1.0000 0.74488  0.58434  0.72494  Biso   1.000  He
  He236    1.0000 0.75362  0.56899  0.75435  Biso   1.000  He
  Ne236    1.0000 0.75442  0.58961  0.78046  Biso   1.000  Ne
  Ne237    1.0000 0.42202  0.06098  0.36917  Biso   1.000  Ne
  He237    1.0000 0.38976  0.05485  0.37134  Biso   1.000  He
  He238    1.0000 0.36955  0.06721  0.39566  Biso   1.000  He
  Ne238    1.0000 0.34108  0.05720  0.39238  Biso   1.000  Ne
  Ne239    1.0000 0.60778  0.20109  0.62429  Biso   1.000  Ne
  He239    1.0000 0.62133  0.17208  0.61541  Biso   1.000  He
  He240    1.0000 0.60008  0.14848  0.61591  Biso   1.000  He
  Ne240    1.0000 0.61197  0.12054  0.60682  Biso   1.000  Ne
  Ne241    1.0000 0.90328  0.26331  0.77932  Biso   1.000  Ne
  He241    1.0000 0.90684  0.22981  0.78081  Biso   1.000  He
  He242    1.0000 0.89731  0.21677  0.80852  Biso   1.000  He
  Ne242    1.0000 0.89010  0.18169  0.80433  Biso   1.000  Ne
  Ne243    1.0000 0.72027  0.04584  0.01365  Biso   1.000  Ne
  He243    1.0000 0.69129  0.03854  0.99684  Biso   1.000  He
  He244    1.0000 0.69056  0.05494  0.97001  Biso   1.000  He
  Ne244    1.0000 0.66697  0.04415  0.94986  Biso   1.000  Ne
  Ne245    1.0000 0.67027  0.37035  0.94154  Biso   1.000  Ne
  He245    1.0000 0.65582  0.33989  0.95139  Biso   1.000  He
  He246    1.0000 0.67498  0.31602  0.94525  Biso   1.000  He
  Ne246    1.0000 0.66593  0.28629  0.95358  Biso   1.000  Ne
  Ne247    1.0000 0.35124  0.30028  0.89305  Biso   1.000  Ne
  He247    1.0000 0.33364  0.27967  0.90930  Biso   1.000  He
  He248    1.0000 0.33319  0.28070  0.94199  Biso   1.000  He
  Ne248    1.0000 0.31197  0.26267  0.95289  Biso   1.000  Ne
  Ne249    1.0000 0.59043  0.28235  0.11177  Biso   1.000  Ne
  He249    1.0000 0.60840  0.29965  0.13284  Biso   1.000  He
  He250    1.0000 0.60286  0.28794  0.16326  Biso   1.000  He
  Ne250    1.0000 0.60363  0.30815  0.18953  Biso   1.000  Ne
  Ne251    1.0000 0.67423  0.40232  0.10159  Biso   1.000  Ne
  He251    1.0000 0.64824  0.40258  0.12598  Biso   1.000  He
  He252    1.0000 0.64005  0.37509  0.13997  Biso   1.000  He
  Ne252    1.0000 0.62242  0.37946  0.16714  Biso   1.000  Ne
  Ne253    1.0000 0.70552  0.58140  0.84419  Biso   1.000  Ne
  He253    1.0000 0.68374  0.59507  0.82118  Biso   1.000  He
  He254    1.0000 0.67937  0.62779  0.82815  Biso   1.000  He
  Ne254    1.0000 0.66410  0.64608  0.80473  Biso   1.000  Ne
  Ne255    1.0000 0.15252  0.55910  0.44970  Biso   1.000  Ne
  He255    1.0000 0.17269  0.58215  0.46020  Biso   1.000  He
  He256    1.0000 0.20231  0.56962  0.46978  Biso   1.000  He
  Ne256    1.0000 0.22357  0.58888  0.48266  Biso   1.000  Ne
  Ne257    1.0000 0.07978  0.40695  0.41606  Biso   1.000  Ne
  He257    1.0000 0.08186  0.41276  0.44914  Biso   1.000  He
  He258    1.0000 0.11133  0.41916  0.46024  Biso   1.000  He
  Ne258    1.0000 0.11101  0.42728  0.49369  Biso   1.000  Ne
  Ne259    1.0000 0.90107  0.09378  0.22782  Biso   1.000  Ne
  He259    1.0000 0.93249  0.10108  0.23836  Biso   1.000  He
  He260    1.0000 0.93446  0.11397  0.26980  Biso   1.000  He
  Ne260    1.0000 0.94458  0.09293  0.29062  Biso   1.000  Ne
  Ne261    1.0000 0.44675  0.26870  0.19792  Biso   1.000  Ne
  He261    1.0000 0.43197  0.29294  0.21009  Biso   1.000  He
  He262    1.0000 0.44069  0.32584  0.20226  Biso   1.000  He
  Ne262    1.0000 0.42841  0.34748  0.22453  Biso   1.000  Ne
  Ne263    1.0000 0.57836  0.54126  0.81378  Biso   1.000  Ne
  He263    1.0000 0.57795  0.57476  0.80972  Biso   1.000  He
  He264    1.0000 0.57598  0.59012  0.84120  Biso   1.000  He
  Ne264    1.0000 0.58167  0.62244  0.83810  Biso   1.000  Ne
  Ne265    1.0000 0.71364  0.04283  0.69439  Biso   1.000  Ne
  He265    1.0000 0.72119  0.04416  0.66116  Biso   1.000  He
  He266    1.0000 0.70355  0.06319  0.64267  Biso   1.000  He
  Ne266    1.0000 0.71083  0.06286  0.61127  Biso   1.000  Ne
  Ne267    1.0000 0.09564  0.33131  0.36714  Biso   1.000  Ne
  He267    1.0000 0.10944  0.34683  0.33946  Biso   1.000  He
  He268    1.0000 0.09905  0.37792  0.33635  Biso   1.000  He
  Ne268    1.0000 0.11517  0.39568  0.31490  Biso   1.000  Ne
  Ne269    1.0000 0.46803  0.85869  0.20558  Biso   1.000  Ne
  He269    1.0000 0.48351  0.83417  0.22390  Biso   1.000  He
  He270    1.0000 0.51086  0.82574  0.21035  Biso   1.000  He
  Ne270    1.0000 0.52801  0.80245  0.22425  Biso   1.000  Ne
  Ne271    1.0000 0.96562  0.96279  0.94838  Biso   1.000  Ne
  He271    1.0000 0.96971  0.94218  0.97013  Biso   1.000  He
  He272    1.0000 0.00293  0.93197  0.96968  Biso   1.000  He
  Ne272    1.0000 0.00943  0.90802  0.99230  Biso   1.000  Ne
  Ne273    1.0000 0.62544  0.75233  0.42373  Biso   1.000  Ne
  He273    1.0000 0.63261  0.78387  0.42104  Biso   1.000  He
  He274    1.0000 0.60631  0.80339  0.42749  Biso   1.000  He
  Ne274    1.0000 0.60930  0.83660  0.42952  Biso   1.000  Ne
  Ne275    1.0000 0.09563  0.96471  0.02674  Biso   1.000  Ne
  He275    1.0000 0.08033  0.98186  0.99949  Biso   1.000  He
  He276    1.0000 0.09022  0.01585  0.99660  Biso   1.000  He
  Ne276    1.0000 0.06934  0.03429  0.97736  Biso   1.000  Ne
  Ne277    1.0000 0.76885  0.37924  0.73706  Biso   1.000  Ne
  He277    1.0000 0.79230  0.39275  0.71551  Biso   1.000  He
  He278    1.0000 0.82170  0.37640  0.71706  Biso   1.000  He
  Ne278    1.0000 0.84400  0.39133  0.69970  Biso   1.000  Ne
  Ne279    1.0000 0.92876  0.87325  0.87396  Biso   1.000  Ne
  He279    1.0000 0.90929  0.86358  0.84966  Biso   1.000  He
  He280    1.0000 0.87776  0.87326  0.85511  Biso   1.000  He
  Ne280    1.0000 0.85734  0.85676  0.83526  Biso   1.000  Ne
