data_image0
_cell_length_a       46.5264
_cell_length_b       46.9624
_cell_length_c       46.6114
_cell_angle_alpha    90
_cell_angle_beta     90
_cell_angle_gamma    90

_symmetry_space_group_name_H-M    "P 1"
_symmetry_int_tables_number       1

loop_
  _symmetry_equiv_pos_as_xyz
  'x, y, z'

loop_
  _atom_site_label
  _atom_site_occupancy
  _atom_site_fract_x
  _atom_site_fract_y
  _atom_site_fract_z
  _atom_site_thermal_displace_type
  _atom_site_B_iso_or_equiv
  _atom_site_type_symbol
  Ne1      1.0000 0.45433  0.40497  0.16290  Biso   1.000  Ne
  He1      1.0000 0.44084  0.37652  0.17189  Biso   1.000  He
  He2      1.0000 0.43379  0.35679  0.14792  Biso   1.000  He
  Ne2      1.0000 0.42562  0.32526  0.15821  Biso   1.000  Ne
  Ne3      1.0000 0.39360  0.35435  0.96171  Biso   1.000  Ne
  He3      1.0000 0.37758  0.32473  0.96254  Biso   1.000  He
  He4      1.0000 0.34925  0.31937  0.94157  Biso   1.000  He
  Ne4      1.0000 0.33619  0.28914  0.94343  Biso   1.000  Ne
  Ne5      1.0000 0.38892  0.12076  0.76319  Biso   1.000  Ne
  He5      1.0000 0.36920  0.10377  0.74296  Biso   1.000  He
  He6      1.0000 0.38736  0.08919  0.72189  Biso   1.000  He
  Ne6      1.0000 0.37299  0.06907  0.69939  Biso   1.000  Ne
  Ne7      1.0000 0.13382  0.91462  0.92005  Biso   1.000  Ne
  He7      1.0000 0.12720  0.90641  0.88810  Biso   1.000  He
  He8      1.0000 0.12377  0.87450  0.88320  Biso   1.000  He
  Ne8      1.0000 0.11760  0.86837  0.85116  Biso   1.000  Ne
  Ne9      1.0000 0.65622  0.06421  0.46176  Biso   1.000  Ne
  He9      1.0000 0.66827  0.06929  0.43108  Biso   1.000  He
  He10     1.0000 0.64634  0.06485  0.40549  Biso   1.000  He
  Ne10     1.0000 0.65517  0.07139  0.37478  Biso   1.000  Ne
  Ne11     1.0000 0.10302  0.88946  0.19209  Biso   1.000  Ne
  He11     1.0000 0.11453  0.90041  0.16326  Biso   1.000  He
  He12     1.0000 0.09208  0.91131  0.14171  Biso   1.000  He
  Ne12     1.0000 0.10112  0.91588  0.11103  Biso   1.000  Ne
  Ne13     1.0000 0.92493  0.37299  0.47447  Biso   1.000  Ne
  He13     1.0000 0.95267  0.38631  0.46119  Biso   1.000  He
  He14     1.0000 0.94482  0.41259  0.44204  Biso   1.000  He
  Ne14     1.0000 0.96974  0.42531  0.42884  Biso   1.000  Ne
  Ne15     1.0000 0.60784  0.55190  0.20307  Biso   1.000  Ne
  He15     1.0000 0.60043  0.57589  0.18207  Biso   1.000  He
  He16     1.0000 0.61186  0.60465  0.19332  Biso   1.000  He
  Ne16     1.0000 0.60556  0.62860  0.17494  Biso   1.000  Ne
  Ne17     1.0000 0.35589  0.37892  0.14136  Biso   1.000  Ne
  He17     1.0000 0.33104  0.39501  0.12563  Biso   1.000  He
  He18     1.0000 0.30176  0.37618  0.12777  Biso   1.000  He
  Ne18     1.0000 0.27644  0.38792  0.11413  Biso   1.000  Ne
  Ne19     1.0000 0.65372  0.57352  0.89875  Biso   1.000  Ne
  He19     1.0000 0.63004  0.56752  0.92411  Biso   1.000  He
  He20     1.0000 0.62910  0.59181  0.94702  Biso   1.000  He
  Ne20     1.0000 0.60560  0.61378  0.94350  Biso   1.000  Ne
  Ne21     1.0000 0.34967  0.81873  0.61220  Biso   1.000  Ne
  He21     1.0000 0.37485  0.83623  0.62237  Biso   1.000  He
  He22     1.0000 0.37039  0.86892  0.62528  Biso   1.000  He
  Ne22     1.0000 0.39862  0.88787  0.63082  Biso   1.000  Ne
  Ne23     1.0000 0.44382  0.15802  0.60837  Biso   1.000  Ne
  He23     1.0000 0.44309  0.14285  0.63941  Biso   1.000  He
  He24     1.0000 0.45732  0.11310  0.64295  Biso   1.000  He
  Ne24     1.0000 0.45636  0.10129  0.67576  Biso   1.000  Ne
  Ne25     1.0000 0.62290  0.03439  0.66721  Biso   1.000  Ne
  He25     1.0000 0.61330  0.05566  0.64338  Biso   1.000  He
  He26     1.0000 0.60927  0.04311  0.61239  Biso   1.000  He
  Ne26     1.0000 0.60401  0.06765  0.58924  Biso   1.000  Ne
  Ne27     1.0000 0.94612  0.62687  0.68838  Biso   1.000  Ne
  He27     1.0000 0.95589  0.59764  0.67582  Biso   1.000  He
  He28     1.0000 0.96173  0.59442  0.64282  Biso   1.000  He
  Ne28     1.0000 0.97667  0.56822  0.63173  Biso   1.000  Ne
  Ne29     1.0000 0.63236  0.32890  0.15936  Biso   1.000  Ne
  He29     1.0000 0.61682  0.30273  0.15539  Biso   1.000  He
  He30     1.0000 0.61587  0.28925  0.12338  Biso   1.000  He
  Ne30     1.0000 0.59690  0.26634  0.11841  Biso   1.000  Ne
  Ne31     1.0000 0.71020  0.13079  0.62127  Biso   1.000  Ne
  He31     1.0000 0.67912  0.14154  0.61636  Biso   1.000  He
  He32     1.0000 0.65970  0.13975  0.64360  Biso   1.000  He
  Ne32     1.0000 0.62882  0.14514  0.63687  Biso   1.000  Ne
  Ne33     1.0000 0.09993  0.39088  0.64741  Biso   1.000  Ne
  He33     1.0000 0.09859  0.38721  0.67815  Biso   1.000  He
  He34     1.0000 0.11061  0.35723  0.68642  Biso   1.000  He
  Ne34     1.0000 0.11132  0.34658  0.71791  Biso   1.000  Ne
  Ne35     1.0000 0.59083  0.82567  0.73183  Biso   1.000  Ne
  He35     1.0000 0.60288  0.85319  0.71793  Biso   1.000  He
  He36     1.0000 0.58146  0.86583  0.69594  Biso   1.000  He
  Ne36     1.0000 0.59595  0.88907  0.67816  Biso   1.000  Ne
  Ne37     1.0000 0.61749  0.80835  0.63222  Biso   1.000  Ne
  He37     1.0000 0.63295  0.78948  0.65229  Biso   1.000  He
  He38     1.0000 0.66045  0.77385  0.64184  Biso   1.000  He
  Ne38     1.0000 0.67968  0.76658  0.66759  Biso   1.000  Ne
  Ne39     1.0000 0.94128  0.21672  0.16357  Biso   1.000  Ne
  He39     1.0000 0.95461  0.19020  0.14773  Biso   1.000  He
  He40     1.0000 0.93322  0.18146  0.11939  Biso   1.000  He
  Ne40     1.0000 0.94224  0.15337  0.10606  Biso   1.000  Ne
  Ne41     1.0000 0.92523  0.56159  0.36510  Biso   1.000  Ne
  He41     1.0000 0.90021  0.54811  0.38394  Biso   1.000  He
  He42     1.0000 0.86912  0.56313  0.38496  Biso   1.000  He
  Ne42     1.0000 0.84616  0.54708  0.40085  Biso   1.000  Ne
  Ne43     1.0000 0.18625  0.82503  0.96427  Biso   1.000  Ne
  He43     1.0000 0.18785  0.79397  0.96144  Biso   1.000  He
  He44     1.0000 0.21746  0.78075  0.95994  Biso   1.000  He
  Ne44     1.0000 0.21720  0.74906  0.96472  Biso   1.000  Ne
  Ne45     1.0000 0.45362  0.55846  0.10272  Biso   1.000  Ne
  He45     1.0000 0.45189  0.59172  0.09717  Biso   1.000  He
  He46     1.0000 0.45228  0.61023  0.12532  Biso   1.000  He
  Ne46     1.0000 0.45474  0.64451  0.12096  Biso   1.000  Ne
  Ne47     1.0000 0.94748  0.29331  0.29482  Biso   1.000  Ne
  He47     1.0000 0.92278  0.31495  0.29957  Biso   1.000  He
  He48     1.0000 0.92984  0.34506  0.29286  Biso   1.000  He
  Ne48     1.0000 0.90524  0.36643  0.30148  Biso   1.000  Ne
  Ne49     1.0000 0.20632  0.35543  0.61369  Biso   1.000  Ne
  He49     1.0000 0.19196  0.32530  0.60844  Biso   1.000  He
  He50     1.0000 0.15835  0.32472  0.61382  Biso   1.000  He
  Ne50     1.0000 0.13850  0.29743  0.60457  Biso   1.000  Ne
  Ne51     1.0000 0.02844  0.40868  0.58279  Biso   1.000  Ne
  He51     1.0000 0.00130  0.42391  0.59723  Biso   1.000  He
  He52     1.0000 0.98985  0.44973  0.58168  Biso   1.000  He
  Ne52     1.0000 0.96331  0.46350  0.59274  Biso   1.000  Ne
  Ne53     1.0000 0.59501  0.96204  0.60853  Biso   1.000  Ne
  He53     1.0000 0.60279  0.93165  0.60124  Biso   1.000  He
  He54     1.0000 0.58047  0.91459  0.58875  Biso   1.000  He
  Ne54     1.0000 0.58920  0.88359  0.58059  Biso   1.000  Ne
  Ne55     1.0000 0.09877  0.61548  0.39599  Biso   1.000  Ne
  He55     1.0000 0.10880  0.60070  0.36671  Biso   1.000  He
  He56     1.0000 0.11120  0.56572  0.37127  Biso   1.000  He
  Ne56     1.0000 0.11693  0.54858  0.34628  Biso   1.000  Ne
  Ne57     1.0000 0.43714  0.38374  0.83217  Biso   1.000  Ne
  He57     1.0000 0.43914  0.38021  0.86614  Biso   1.000  He
  He58     1.0000 0.44819  0.34709  0.87660  Biso   1.000  He
  Ne58     1.0000 0.45182  0.34119  0.91039  Biso   1.000  Ne
  Ne59     1.0000 0.99442  0.53456  0.46651  Biso   1.000  Ne
  He59     1.0000 0.96027  0.53803  0.46165  Biso   1.000  He
  He60     1.0000 0.93948  0.51908  0.47827  Biso   1.000  He
  Ne60     1.0000 0.90753  0.52919  0.47471  Biso   1.000  Ne
  Ne61     1.0000 0.61759  0.16788  0.45938  Biso   1.000  Ne
  He61     1.0000 0.63037  0.18040  0.43088  Biso   1.000  He
  He62     1.0000 0.61958  0.16305  0.40532  Biso   1.000  He
  Ne62     1.0000 0.62375  0.17896  0.37567  Biso   1.000  Ne
  Ne63     1.0000 0.03008  0.04216  0.97302  Biso   1.000  Ne
  He63     1.0000 0.00258  0.05095  0.95483  Biso   1.000  He
  He64     1.0000 0.97784  0.03003  0.96126  Biso   1.000  He
  Ne64     1.0000 0.94770  0.03484  0.94397  Biso   1.000  Ne
  Ne65     1.0000 0.62881  0.68697  0.09373  Biso   1.000  Ne
  He65     1.0000 0.65220  0.66382  0.09954  Biso   1.000  He
  He66     1.0000 0.68034  0.67387  0.10449  Biso   1.000  He
  Ne66     1.0000 0.70363  0.64963  0.10994  Biso   1.000  Ne
  Ne67     1.0000 0.13521  0.37012  0.46417  Biso   1.000  Ne
  He67     1.0000 0.15696  0.38188  0.43928  Biso   1.000  He
  He68     1.0000 0.18762  0.38996  0.44901  Biso   1.000  He
  Ne68     1.0000 0.20456  0.39919  0.42252  Biso   1.000  Ne
  Ne69     1.0000 0.65939  0.33546  0.93653  Biso   1.000  Ne
  He69     1.0000 0.64070  0.33442  0.96264  Biso   1.000  He
  He70     1.0000 0.61295  0.34890  0.96288  Biso   1.000  He
  Ne70     1.0000 0.61144  0.37933  0.97535  Biso   1.000  Ne
  Ne71     1.0000 0.94334  0.30835  0.65485  Biso   1.000  Ne
  He71     1.0000 0.93989  0.32677  0.62830  Biso   1.000  He
  He72     1.0000 0.93906  0.35932  0.63356  Biso   1.000  He
  Ne72     1.0000 0.93000  0.37728  0.60604  Biso   1.000  Ne
  Ne73     1.0000 0.85806  0.88338  0.91357  Biso   1.000  Ne
  He73     1.0000 0.85670  0.86023  0.93824  Biso   1.000  He
  He74     1.0000 0.85734  0.82907  0.92927  Biso   1.000  He
  Ne74     1.0000 0.88607  0.81381  0.92827  Biso   1.000  Ne
  Ne75     1.0000 0.44130  0.55805  0.26125  Biso   1.000  Ne
  He75     1.0000 0.43882  0.58603  0.24258  Biso   1.000  He
  He76     1.0000 0.43430  0.58287  0.21176  Biso   1.000  He
  Ne76     1.0000 0.43245  0.60942  0.19619  Biso   1.000  Ne
  Ne77     1.0000 0.38782  0.58037  0.94152  Biso   1.000  Ne
  He77     1.0000 0.41687  0.57075  0.92904  Biso   1.000  He
  He78     1.0000 0.42644  0.54265  0.94362  Biso   1.000  He
  Ne78     1.0000 0.45338  0.52891  0.93189  Biso   1.000  Ne
  Ne79     1.0000 0.43396  0.77652  0.43714  Biso   1.000  Ne
  He79     1.0000 0.41508  0.80088  0.45176  Biso   1.000  He
  He80     1.0000 0.39245  0.81413  0.42876  Biso   1.000  He
  Ne80     1.0000 0.37732  0.84311  0.43946  Biso   1.000  Ne
  Ne81     1.0000 0.66553  0.39982  0.11535  Biso   1.000  Ne
  He81     1.0000 0.64024  0.41885  0.10466  Biso   1.000  He
  He82     1.0000 0.61118  0.40287  0.10249  Biso   1.000  He
  Ne82     1.0000 0.59184  0.41826  0.08236  Biso   1.000  Ne
  Ne83     1.0000 0.87749  0.57491  0.62070  Biso   1.000  Ne
  He83     1.0000 0.84679  0.56501  0.63322  Biso   1.000  He
  He84     1.0000 0.82073  0.56756  0.61333  Biso   1.000  He
  Ne84     1.0000 0.79380  0.56140  0.62692  Biso   1.000  Ne
  Ne85     1.0000 0.09909  0.37630  0.31351  Biso   1.000  Ne
  He85     1.0000 0.13251  0.37571  0.30703  Biso   1.000  He
  He86     1.0000 0.15112  0.38432  0.33428  Biso   1.000  He
  Ne86     1.0000 0.18160  0.38429  0.32733  Biso   1.000  Ne
  Ne87     1.0000 0.96231  0.90424  0.94580  Biso   1.000  Ne
  He87     1.0000 0.95828  0.87940  0.92507  Biso   1.000  He
  He88     1.0000 0.94711  0.88971  0.89613  Biso   1.000  He
  Ne88     1.0000 0.94230  0.86656  0.87476  Biso   1.000  Ne
  Ne89     1.0000 0.53956  0.40143  0.01789  Biso   1.000  Ne
  He89     1.0000 0.51022  0.41375  0.01863  Biso   1.000  He
  He90     1.0000 0.49180  0.40237  0.99311  Biso   1.000  He
  Ne90     1.0000 0.46406  0.42193  0.98503  Biso   1.000  Ne
  Ne91     1.0000 0.06116  0.52058  0.56083  Biso   1.000  Ne
  He91     1.0000 0.07685  0.52161  0.59052  Biso   1.000  He
  He92     1.0000 0.06678  0.54432  0.60755  Biso   1.000  He
  Ne92     1.0000 0.08894  0.54910  0.63034  Biso   1.000  Ne
  Ne93     1.0000 0.63108  0.55220  0.11061  Biso   1.000  Ne
  He93     1.0000 0.61474  0.53063  0.08786  Biso   1.000  He
  He94     1.0000 0.60206  0.54549  0.06221  Biso   1.000  He
  Ne94     1.0000 0.58784  0.52289  0.04237  Biso   1.000  Ne
  Ne95     1.0000 0.29476  0.05092  0.61928  Biso   1.000  Ne
  He95     1.0000 0.32007  0.07252  0.61544  Biso   1.000  He
  He96     1.0000 0.31863  0.10075  0.63282  Biso   1.000  He
  Ne96     1.0000 0.34167  0.12423  0.62687  Biso   1.000  Ne
  Ne97     1.0000 0.20895  0.08106  0.93346  Biso   1.000  Ne
  He97     1.0000 0.19573  0.10851  0.93765  Biso   1.000  He
  He98     1.0000 0.22060  0.13007  0.93973  Biso   1.000  He
  Ne98     1.0000 0.21201  0.16312  0.94265  Biso   1.000  Ne
  Ne99     1.0000 0.44927  0.12705  0.38068  Biso   1.000  Ne
  He99     1.0000 0.42995  0.10024  0.38629  Biso   1.000  He
  He100    1.0000 0.44420  0.07296  0.40385  Biso   1.000  He
  Ne100    1.0000 0.42349  0.04623  0.40355  Biso   1.000  Ne
  Ne101    1.0000 0.10352  0.10024  0.94230  Biso   1.000  Ne
  He101    1.0000 0.10474  0.11770  0.91660  Biso   1.000  He
  He102    1.0000 0.10517  0.10163  0.88866  Biso   1.000  He
  Ne102    1.0000 0.10484  0.12087  0.86085  Biso   1.000  Ne
  Ne103    1.0000 0.88025  0.26269  0.98295  Biso   1.000  Ne
  He103    1.0000 0.86649  0.26974  0.95347  Biso   1.000  He
  He104    1.0000 0.83420  0.26010  0.95278  Biso   1.000  He
  Ne104    1.0000 0.81611  0.27338  0.92865  Biso   1.000  Ne
  Ne105    1.0000 0.73788  0.89000  0.65238  Biso   1.000  Ne
  He105    1.0000 0.70653  0.88044  0.65045  Biso   1.000  He
  He106    1.0000 0.69440  0.89217  0.62428  Biso   1.000  He
  Ne106    1.0000 0.66021  0.88933  0.62487  Biso   1.000  Ne
  Ne107    1.0000 0.62709  0.82497  0.35341  Biso   1.000  Ne
  He107    1.0000 0.63226  0.82388  0.38678  Biso   1.000  He
  He108    1.0000 0.61974  0.79679  0.39790  Biso   1.000  He
  Ne108    1.0000 0.62434  0.78856  0.42835  Biso   1.000  Ne
  Ne109    1.0000 0.10720  0.74538  0.19888  Biso   1.000  Ne
  He109    1.0000 0.11537  0.77568  0.18632  Biso   1.000  He
  He110    1.0000 0.09510  0.78442  0.16125  Biso   1.000  He
  Ne110    1.0000 0.10106  0.81399  0.14995  Biso   1.000  Ne
  Ne111    1.0000 0.12391  0.72416  0.93904  Biso   1.000  Ne
  He111    1.0000 0.12496  0.75592  0.94194  Biso   1.000  He
  He112    1.0000 0.11463  0.77257  0.91563  Biso   1.000  He
  Ne112    1.0000 0.11661  0.80520  0.92072  Biso   1.000  Ne
  Ne113    1.0000 0.68324  0.55053  0.53152  Biso   1.000  Ne
  He113    1.0000 0.69752  0.55808  0.56097  Biso   1.000  He
  He114    1.0000 0.68039  0.57979  0.57715  Biso   1.000  He
  Ne114    1.0000 0.69286  0.59150  0.60585  Biso   1.000  Ne
  Ne115    1.0000 0.30181  0.21066  0.94238  Biso   1.000  Ne
  He115    1.0000 0.31729  0.21229  0.97114  Biso   1.000  He
  He116    1.0000 0.34942  0.20423  0.97518  Biso   1.000  He
  Ne116    1.0000 0.35637  0.19564  0.00545  Biso   1.000  Ne
  Ne117    1.0000 0.45782  0.88655  0.44089  Biso   1.000  Ne
  He117    1.0000 0.44565  0.90251  0.41296  Biso   1.000  He
  He118    1.0000 0.44455  0.88146  0.38703  Biso   1.000  He
  Ne118    1.0000 0.44023  0.89793  0.35917  Biso   1.000  Ne
  Ne119    1.0000 0.43233  0.89760  0.70332  Biso   1.000  Ne
  He119    1.0000 0.42050  0.91691  0.72715  Biso   1.000  He
  He120    1.0000 0.39387  0.90447  0.74560  Biso   1.000  He
  Ne120    1.0000 0.38886  0.92403  0.77253  Biso   1.000  Ne
