data_image0
_cell_length_a       47.0069
_cell_length_b       46.6197
_cell_length_c       46.5548
_cell_angle_alpha    90
_cell_angle_beta     90
_cell_angle_gamma    90

_symmetry_space_group_name_H-M    "P 1"
_symmetry_int_tables_number       1

loop_
  _symmetry_equiv_pos_as_xyz
  'x, y, z'

loop_
  _atom_site_label
  _atom_site_occupancy
  _atom_site_fract_x
  _atom_site_fract_y
  _atom_site_fract_z
  _atom_site_thermal_displace_type
  _atom_site_B_iso_or_equiv
  _atom_site_type_symbol
  Ne1      1.0000 0.18718  0.60416  0.43627  Biso   1.000  Ne
  He1      1.0000 0.17234  0.57640  0.42902  Biso   1.000  He
  He2      1.0000 0.14679  0.56780  0.44801  Biso   1.000  He
  Ne2      1.0000 0.13529  0.53607  0.44155  Biso   1.000  Ne
  Ne3      1.0000 0.17642  0.77967  0.14940  Biso   1.000  Ne
  He3      1.0000 0.19693  0.79384  0.13202  Biso   1.000  He
  He4      1.0000 0.20727  0.82337  0.14299  Biso   1.000  He
  Ne4      1.0000 0.22945  0.84043  0.12453  Biso   1.000  Ne
  Ne5      1.0000 0.36742  0.85514  0.39913  Biso   1.000  Ne
  He5      1.0000 0.39243  0.84901  0.37592  Biso   1.000  He
  He6      1.0000 0.38546  0.86487  0.34722  Biso   1.000  He
  Ne6      1.0000 0.40990  0.86462  0.32383  Biso   1.000  Ne
  Ne7      1.0000 0.09386  0.38074  0.37413  Biso   1.000  Ne
  He7      1.0000 0.12129  0.37083  0.38162  Biso   1.000  He
  He8      1.0000 0.13480  0.38891  0.40457  Biso   1.000  He
  Ne8      1.0000 0.16405  0.37580  0.41447  Biso   1.000  Ne
  Ne9      1.0000 0.96256  0.86294  0.73494  Biso   1.000  Ne
  He9      1.0000 0.96326  0.88978  0.75572  Biso   1.000  He
  He10     1.0000 0.93215  0.90085  0.76626  Biso   1.000  He
  Ne10     1.0000 0.92322  0.89271  0.79779  Biso   1.000  Ne
  Ne11     1.0000 0.36426  0.40642  0.94120  Biso   1.000  Ne
  He11     1.0000 0.39443  0.41369  0.92694  Biso   1.000  He
  He12     1.0000 0.39690  0.39795  0.89820  Biso   1.000  He
  Ne12     1.0000 0.42554  0.40344  0.87992  Biso   1.000  Ne
  Ne13     1.0000 0.09290  0.62977  0.42505  Biso   1.000  Ne
  He13     1.0000 0.08946  0.63706  0.39392  Biso   1.000  He
  He14     1.0000 0.11149  0.62673  0.37300  Biso   1.000  He
  Ne14     1.0000 0.10619  0.63576  0.34215  Biso   1.000  Ne
  Ne15     1.0000 0.65471  0.90907  0.76752  Biso   1.000  Ne
  He15     1.0000 0.63762  0.90519  0.73799  Biso   1.000  He
  He16     1.0000 0.65659  0.90442  0.70978  Biso   1.000  He
  Ne16     1.0000 0.63582  0.90407  0.68750  Biso   1.000  Ne
  Ne17     1.0000 0.63384  0.84543  0.60119  Biso   1.000  Ne
  He17     1.0000 0.61941  0.82364  0.62138  Biso   1.000  He
  He18     1.0000 0.62025  0.79215  0.61047  Biso   1.000  He
  Ne18     1.0000 0.60767  0.76874  0.62628  Biso   1.000  Ne
  Ne19     1.0000 0.71375  0.07768  0.73324  Biso   1.000  Ne
  He19     1.0000 0.72878  0.07558  0.70296  Biso   1.000  He
  He20     1.0000 0.71080  0.07699  0.67843  Biso   1.000  He
  Ne20     1.0000 0.72791  0.07440  0.64985  Biso   1.000  Ne
