data_image0
_cell_length_a       46.7086
_cell_length_b       46.5304
_cell_length_c       46.4383
_cell_angle_alpha    90
_cell_angle_beta     90
_cell_angle_gamma    90

_symmetry_space_group_name_H-M    "P 1"
_symmetry_int_tables_number       1

loop_
  _symmetry_equiv_pos_as_xyz
  'x, y, z'

loop_
  _atom_site_label
  _atom_site_occupancy
  _atom_site_fract_x
  _atom_site_fract_y
  _atom_site_fract_z
  _atom_site_thermal_displace_type
  _atom_site_B_iso_or_equiv
  _atom_site_type_symbol
  Ne1      1.0000 0.41091  0.22599  0.62903  Biso   1.000  Ne
  He1      1.0000 0.43423  0.21434  0.60524  Biso   1.000  He
  He2      1.0000 0.44216  0.18114  0.60328  Biso   1.000  He
  Ne2      1.0000 0.46721  0.17381  0.58501  Biso   1.000  Ne
  Ne3      1.0000 0.90384  0.86368  0.25654  Biso   1.000  Ne
  He3      1.0000 0.92824  0.87334  0.23539  Biso   1.000  He
  He4      1.0000 0.91806  0.90185  0.21597  Biso   1.000  He
  Ne4      1.0000 0.93946  0.90357  0.19348  Biso   1.000  Ne
  Ne5      1.0000 0.07238  0.36802  0.78804  Biso   1.000  Ne
  He5      1.0000 0.09261  0.36725  0.76175  Biso   1.000  He
  He6      1.0000 0.07884  0.37873  0.73549  Biso   1.000  He
  Ne6      1.0000 0.09892  0.38630  0.71156  Biso   1.000  Ne
  Ne7      1.0000 0.10171  0.84481  0.08023  Biso   1.000  Ne
  He7      1.0000 0.09923  0.82577  0.10439  Biso   1.000  He
  He8      1.0000 0.11706  0.79793  0.09904  Biso   1.000  He
  Ne8      1.0000 0.11356  0.77663  0.12514  Biso   1.000  Ne
  Ne9      1.0000 0.34131  0.39769  0.86868  Biso   1.000  Ne
  He9      1.0000 0.33008  0.37929  0.89287  Biso   1.000  He
  He10     1.0000 0.31661  0.39591  0.91802  Biso   1.000  He
  Ne10     1.0000 0.30350  0.37559  0.94013  Biso   1.000  Ne
  Ne11     1.0000 0.92818  0.66540  0.77545  Biso   1.000  Ne
  He11     1.0000 0.91888  0.63521  0.76773  Biso   1.000  He
  He12     1.0000 0.93998  0.62064  0.74757  Biso   1.000  He
  Ne12     1.0000 0.93197  0.59067  0.73986  Biso   1.000  Ne
  Ne13     1.0000 0.68591  0.87645  0.62542  Biso   1.000  Ne
  He13     1.0000 0.69999  0.89883  0.60758  Biso   1.000  He
  He14     1.0000 0.72965  0.88957  0.59873  Biso   1.000  He
  Ne14     1.0000 0.74042  0.90942  0.57642  Biso   1.000  Ne
  Ne15     1.0000 0.07838  0.07076  0.90945  Biso   1.000  Ne
  He15     1.0000 0.09694  0.09790  0.90866  Biso   1.000  He
  He16     1.0000 0.10000  0.11513  0.93743  Biso   1.000  He
  Ne16     1.0000 0.12279  0.13747  0.94020  Biso   1.000  Ne
  Ne17     1.0000 0.93381  0.90118  0.92536  Biso   1.000  Ne
  He17     1.0000 0.91155  0.90826  0.90271  Biso   1.000  He
  He18     1.0000 0.88028  0.90807  0.91505  Biso   1.000  He
  Ne18     1.0000 0.85887  0.90427  0.89054  Biso   1.000  Ne
  Ne19     1.0000 0.87601  0.61364  0.29751  Biso   1.000  Ne
  He19     1.0000 0.90464  0.60409  0.31373  Biso   1.000  He
  He20     1.0000 0.92982  0.60200  0.29410  Biso   1.000  He
  Ne20     1.0000 0.95444  0.59036  0.31468  Biso   1.000  Ne
  Ne21     1.0000 0.17310  0.91873  0.20721  Biso   1.000  Ne
  He21     1.0000 0.14757  0.90687  0.19003  Biso   1.000  He
  He22     1.0000 0.12090  0.92085  0.19750  Biso   1.000  He
  Ne22     1.0000 0.09356  0.91517  0.17488  Biso   1.000  Ne
  Ne23     1.0000 0.84825  0.56392  0.64577  Biso   1.000  Ne
  He23     1.0000 0.87958  0.56816  0.66049  Biso   1.000  He
  He24     1.0000 0.89678  0.59262  0.64656  Biso   1.000  He
  Ne24     1.0000 0.92664  0.59746  0.65812  Biso   1.000  Ne
  Ne25     1.0000 0.31154  0.66626  0.45575  Biso   1.000  Ne
  He25     1.0000 0.32575  0.68789  0.47568  Biso   1.000  He
  He26     1.0000 0.35943  0.68575  0.47567  Biso   1.000  He
  Ne26     1.0000 0.37213  0.70449  0.49809  Biso   1.000  Ne
  Ne27     1.0000 0.33763  0.57701  0.27584  Biso   1.000  Ne
  He27     1.0000 0.30656  0.56582  0.28358  Biso   1.000  He
  He28     1.0000 0.29671  0.56698  0.31602  Biso   1.000  He
  Ne28     1.0000 0.26903  0.54913  0.32030  Biso   1.000  Ne
  Ne29     1.0000 0.41415  0.90385  0.64051  Biso   1.000  Ne
  He29     1.0000 0.40726  0.88954  0.67095  Biso   1.000  He
  He30     1.0000 0.40534  0.91230  0.69411  Biso   1.000  He
  Ne30     1.0000 0.40466  0.89704  0.72192  Biso   1.000  Ne
  Ne31     1.0000 0.59606  0.87866  0.34005  Biso   1.000  Ne
  He31     1.0000 0.61489  0.89357  0.31710  Biso   1.000  He
  He32     1.0000 0.64443  0.87699  0.31220  Biso   1.000  He
  Ne32     1.0000 0.66626  0.89497  0.29714  Biso   1.000  Ne
  Ne33     1.0000 0.08780  0.15436  0.10330  Biso   1.000  Ne
  He33     1.0000 0.08422  0.17415  0.13025  Biso   1.000  He
  He34     1.0000 0.10433  0.16352  0.15539  Biso   1.000  He
  Ne34     1.0000 0.10429  0.18153  0.18018  Biso   1.000  Ne
  Ne35     1.0000 0.45347  0.87269  0.13870  Biso   1.000  Ne
  He35     1.0000 0.44400  0.84954  0.16033  Biso   1.000  He
  He36     1.0000 0.42437  0.82325  0.14422  Biso   1.000  He
  Ne36     1.0000 0.41063  0.79999  0.16747  Biso   1.000  Ne
  Ne37     1.0000 0.94159  0.73581  0.33933  Biso   1.000  Ne
  He37     1.0000 0.93702  0.72237  0.30940  Biso   1.000  He
  He38     1.0000 0.93771  0.68941  0.30869  Biso   1.000  He
  Ne38     1.0000 0.93055  0.67751  0.27759  Biso   1.000  Ne
  Ne39     1.0000 0.62273  0.64228  0.93891  Biso   1.000  Ne
  He39     1.0000 0.61898  0.61138  0.92442  Biso   1.000  He
  He40     1.0000 0.58751  0.59755  0.92190  Biso   1.000  He
  Ne40     1.0000 0.56826  0.61011  0.89692  Biso   1.000  Ne
  Ne41     1.0000 0.06047  0.58226  0.45195  Biso   1.000  Ne
  He41     1.0000 0.03953  0.55546  0.44948  Biso   1.000  He
  He42     1.0000 0.05627  0.52709  0.43907  Biso   1.000  He
  Ne42     1.0000 0.03931  0.49773  0.44241  Biso   1.000  Ne
  Ne43     1.0000 0.45495  0.67646  0.39831  Biso   1.000  Ne
  He43     1.0000 0.45941  0.70643  0.41059  Biso   1.000  He
  He44     1.0000 0.43908  0.71118  0.43759  Biso   1.000  He
  Ne44     1.0000 0.42070  0.73944  0.43411  Biso   1.000  Ne
  Ne45     1.0000 0.79420  0.36176  0.30385  Biso   1.000  Ne
  He45     1.0000 0.76511  0.37728  0.30822  Biso   1.000  He
  He46     1.0000 0.75683  0.39023  0.33723  Biso   1.000  He
  Ne46     1.0000 0.72631  0.40179  0.33954  Biso   1.000  Ne
  Ne47     1.0000 0.20528  0.39198  0.37459  Biso   1.000  Ne
  He47     1.0000 0.20690  0.36465  0.38953  Biso   1.000  He
  He48     1.0000 0.19128  0.36180  0.41625  Biso   1.000  He
  Ne48     1.0000 0.19610  0.33163  0.43305  Biso   1.000  Ne
  Ne49     1.0000 0.16879  0.07362  0.10029  Biso   1.000  Ne
  He49     1.0000 0.16968  0.10471  0.08807  Biso   1.000  He
  He50     1.0000 0.18281  0.12869  0.10602  Biso   1.000  He
  Ne50     1.0000 0.18764  0.15619  0.09176  Biso   1.000  Ne
  Ne51     1.0000 0.52016  0.03013  0.41523  Biso   1.000  Ne
  He51     1.0000 0.52810  0.04065  0.44598  Biso   1.000  He
  He52     1.0000 0.55987  0.05191  0.45000  Biso   1.000  He
  Ne52     1.0000 0.56322  0.06039  0.48298  Biso   1.000  Ne
  Ne53     1.0000 0.17368  0.62360  0.42649  Biso   1.000  Ne
  He53     1.0000 0.16483  0.59157  0.42037  Biso   1.000  He
  He54     1.0000 0.13402  0.58573  0.41596  Biso   1.000  He
  Ne54     1.0000 0.12628  0.55602  0.40201  Biso   1.000  Ne
  Ne55     1.0000 0.91579  0.67407  0.38788  Biso   1.000  Ne
  He55     1.0000 0.91558  0.70022  0.40956  Biso   1.000  He
  He56     1.0000 0.88736  0.71107  0.42275  Biso   1.000  He
  Ne56     1.0000 0.89414  0.73659  0.44110  Biso   1.000  Ne
  Ne57     1.0000 0.81340  0.55571  0.33266  Biso   1.000  Ne
  He57     1.0000 0.82311  0.55978  0.36370  Biso   1.000  He
  He58     1.0000 0.85671  0.55736  0.36767  Biso   1.000  He
  Ne58     1.0000 0.87134  0.56216  0.39945  Biso   1.000  Ne
  Ne59     1.0000 0.46106  0.08066  0.61802  Biso   1.000  Ne
  He59     1.0000 0.42951  0.06766  0.60654  Biso   1.000  He
  He60     1.0000 0.41062  0.08930  0.58733  Biso   1.000  He
  Ne60     1.0000 0.38205  0.07631  0.57824  Biso   1.000  Ne
  Ne61     1.0000 0.03648  0.97828  0.08596  Biso   1.000  Ne
  He61     1.0000 0.05029  0.97023  0.05723  Biso   1.000  He
  He62     1.0000 0.08329  0.96715  0.05913  Biso   1.000  He
  Ne62     1.0000 0.09554  0.95321  0.03049  Biso   1.000  Ne
  Ne63     1.0000 0.79999  0.52287  0.88586  Biso   1.000  Ne
  He63     1.0000 0.79651  0.50237  0.85834  Biso   1.000  He
  He64     1.0000 0.82077  0.48031  0.85900  Biso   1.000  He
  Ne64     1.0000 0.81871  0.45822  0.83354  Biso   1.000  Ne
  Ne65     1.0000 0.42916  0.55588  0.15026  Biso   1.000  Ne
  He65     1.0000 0.42009  0.57173  0.12131  Biso   1.000  He
  He66     1.0000 0.44609  0.58114  0.10033  Biso   1.000  He
  Ne66     1.0000 0.43611  0.59283  0.07102  Biso   1.000  Ne
  Ne67     1.0000 0.47666  0.43999  0.07368  Biso   1.000  Ne
  He67     1.0000 0.49567  0.43900  0.04559  Biso   1.000  He
  He68     1.0000 0.48020  0.42484  0.02033  Biso   1.000  He
  Ne68     1.0000 0.49726  0.42119  0.99310  Biso   1.000  Ne
  Ne69     1.0000 0.06911  0.82360  0.74002  Biso   1.000  Ne
  He69     1.0000 0.07873  0.79323  0.73378  Biso   1.000  He
  He70     1.0000 0.06351  0.77407  0.71263  Biso   1.000  He
  Ne70     1.0000 0.07764  0.74329  0.70784  Biso   1.000  Ne
  Ne71     1.0000 0.14415  0.90791  0.09051  Biso   1.000  Ne
  He71     1.0000 0.17150  0.89406  0.09669  Biso   1.000  He
  He72     1.0000 0.19821  0.91377  0.09098  Biso   1.000  He
  Ne72     1.0000 0.22846  0.90076  0.09492  Biso   1.000  Ne
  Ne73     1.0000 0.44750  0.86164  0.41872  Biso   1.000  Ne
  He73     1.0000 0.41867  0.87604  0.42499  Biso   1.000  He
  He74     1.0000 0.39275  0.85654  0.42544  Biso   1.000  He
  Ne74     1.0000 0.36469  0.86988  0.43090  Biso   1.000  Ne
  Ne75     1.0000 0.46205  0.03108  0.51182  Biso   1.000  Ne
  He75     1.0000 0.46592  0.00017  0.50043  Biso   1.000  He
  He76     1.0000 0.44500  0.99033  0.47855  Biso   1.000  He
  Ne76     1.0000 0.45063  0.96006  0.47008  Biso   1.000  Ne
  Ne77     1.0000 0.59790  0.06238  0.32320  Biso   1.000  Ne
  He77     1.0000 0.62330  0.05021  0.34096  Biso   1.000  He
  He78     1.0000 0.63214  0.06722  0.36878  Biso   1.000  He
  Ne78     1.0000 0.65712  0.05330  0.38724  Biso   1.000  Ne
  Ne79     1.0000 0.81717  0.61925  0.57642  Biso   1.000  Ne
  He79     1.0000 0.83758  0.64587  0.58221  Biso   1.000  He
  He80     1.0000 0.82070  0.67451  0.58983  Biso   1.000  He
  Ne80     1.0000 0.84177  0.69857  0.59295  Biso   1.000  Ne
  Ne81     1.0000 0.38717  0.78828  0.98804  Biso   1.000  Ne
  He81     1.0000 0.39947  0.81483  0.97217  Biso   1.000  He
  He82     1.0000 0.38299  0.82208  0.94345  Biso   1.000  He
  Ne82     1.0000 0.39253  0.84835  0.92879  Biso   1.000  Ne
  Ne83     1.0000 0.16078  0.05991  0.93667  Biso   1.000  Ne
  He83     1.0000 0.18829  0.07617  0.94567  Biso   1.000  He
  He84     1.0000 0.20095  0.09328  0.92152  Biso   1.000  He
  Ne84     1.0000 0.23000  0.11069  0.93304  Biso   1.000  Ne
  Ne85     1.0000 0.65663  0.57725  0.84747  Biso   1.000  Ne
  He85     1.0000 0.69033  0.57294  0.85219  Biso   1.000  He
  He86     1.0000 0.70303  0.58348  0.88141  Biso   1.000  He
  Ne86     1.0000 0.73629  0.57489  0.88941  Biso   1.000  Ne
  Ne87     1.0000 0.60677  0.29584  0.26536  Biso   1.000  Ne
  He87     1.0000 0.60359  0.27745  0.23665  Biso   1.000  He
  He88     1.0000 0.60594  0.24324  0.24141  Biso   1.000  He
  Ne88     1.0000 0.60756  0.22802  0.21014  Biso   1.000  Ne
  Ne89     1.0000 0.52568  0.77392  0.11545  Biso   1.000  Ne
  He89     1.0000 0.51782  0.78001  0.14616  Biso   1.000  He
  He90     1.0000 0.50786  0.81259  0.15265  Biso   1.000  He
  Ne90     1.0000 0.50897  0.81384  0.18617  Biso   1.000  Ne
  Ne91     1.0000 0.61404  0.69421  0.16849  Biso   1.000  Ne
  He91     1.0000 0.59232  0.68414  0.14481  Biso   1.000  He
  He92     1.0000 0.60742  0.67449  0.11646  Biso   1.000  He
  Ne92     1.0000 0.58568  0.66792  0.09272  Biso   1.000  Ne
  Ne93     1.0000 0.16222  0.39021  0.63287  Biso   1.000  Ne
  He93     1.0000 0.17511  0.36683  0.61274  Biso   1.000  He
  He94     1.0000 0.17029  0.33544  0.62051  Biso   1.000  He
  Ne94     1.0000 0.18552  0.31383  0.59974  Biso   1.000  Ne
  Ne95     1.0000 0.70264  0.53279  0.25038  Biso   1.000  Ne
  He95     1.0000 0.67104  0.54600  0.23946  Biso   1.000  He
  He96     1.0000 0.66593  0.55085  0.20617  Biso   1.000  He
  Ne96     1.0000 0.67745  0.58018  0.19509  Biso   1.000  Ne
  Ne97     1.0000 0.95752  0.06732  0.91782  Biso   1.000  Ne
  He97     1.0000 0.98439  0.07979  0.93591  Biso   1.000  He
  He98     1.0000 0.99893  0.05909  0.95795  Biso   1.000  He
  Ne98     1.0000 0.01833  0.07923  0.97535  Biso   1.000  Ne
  Ne99     1.0000 0.87617  0.14220  0.09705  Biso   1.000  Ne
  He99     1.0000 0.85040  0.12602  0.08781  Biso   1.000  He
  He100    1.0000 0.85424  0.10016  0.06923  Biso   1.000  He
  Ne100    1.0000 0.82517  0.08647  0.06357  Biso   1.000  Ne
  Ne101    1.0000 0.11653  0.42225  0.41108  Biso   1.000  Ne
  He101    1.0000 0.10221  0.39252  0.41502  Biso   1.000  He
  He102    1.0000 0.09899  0.38532  0.44964  Biso   1.000  He
  Ne102    1.0000 0.07032  0.39525  0.46235  Biso   1.000  Ne
  Ne103    1.0000 0.98147  0.90723  0.03653  Biso   1.000  Ne
  He103    1.0000 0.00454  0.91187  0.01339  Biso   1.000  He
  He104    1.0000 0.98996  0.90227  0.98402  Biso   1.000  He
  Ne104    1.0000 0.00810  0.90314  0.95455  Biso   1.000  Ne
  Ne105    1.0000 0.19569  0.87008  0.92319  Biso   1.000  Ne
  He105    1.0000 0.22234  0.88519  0.90691  Biso   1.000  He
  He106    1.0000 0.25178  0.86826  0.90492  Biso   1.000  He
  Ne106    1.0000 0.27968  0.88535  0.89443  Biso   1.000  Ne
  Ne107    1.0000 0.66092  0.39211  0.90778  Biso   1.000  Ne
  He107    1.0000 0.63398  0.40517  0.91057  Biso   1.000  He
  He108    1.0000 0.62311  0.42066  0.88243  Biso   1.000  He
  Ne108    1.0000 0.59071  0.42828  0.88591  Biso   1.000  Ne
  Ne109    1.0000 0.42258  0.94964  0.55732  Biso   1.000  Ne
  He109    1.0000 0.44101  0.96547  0.57911  Biso   1.000  He
  He110    1.0000 0.47443  0.95705  0.57569  Biso   1.000  He
  Ne110    1.0000 0.49536  0.97083  0.59646  Biso   1.000  Ne
  Ne111    1.0000 0.39610  0.58981  0.82899  Biso   1.000  Ne
  He111    1.0000 0.40355  0.56538  0.85102  Biso   1.000  He
  He112    1.0000 0.41547  0.57544  0.88184  Biso   1.000  He
  Ne112    1.0000 0.42368  0.54991  0.90332  Biso   1.000  Ne
  Ne113    1.0000 0.41953  0.40180  0.15806  Biso   1.000  Ne
  He113    1.0000 0.44627  0.39587  0.17586  Biso   1.000  He
  He114    1.0000 0.44001  0.38598  0.20638  Biso   1.000  He
  Ne114    1.0000 0.46619  0.38275  0.22683  Biso   1.000  Ne
  Ne115    1.0000 0.59979  0.30271  0.11292  Biso   1.000  Ne
  He115    1.0000 0.60931  0.32440  0.14033  Biso   1.000  He
  He116    1.0000 0.60940  0.35913  0.13323  Biso   1.000  He
  Ne116    1.0000 0.61039  0.37842  0.15994  Biso   1.000  Ne
  Ne117    1.0000 0.78592  0.39093  0.08535  Biso   1.000  Ne
  He117    1.0000 0.79094  0.39863  0.11909  Biso   1.000  He
  He118    1.0000 0.76815  0.38609  0.14274  Biso   1.000  He
  Ne118    1.0000 0.77493  0.39901  0.17544  Biso   1.000  Ne
  Ne119    1.0000 0.82167  0.70257  0.97492  Biso   1.000  Ne
  He119    1.0000 0.81339  0.67405  0.96514  Biso   1.000  He
  He120    1.0000 0.80808  0.65363  0.99151  Biso   1.000  He
  Ne120    1.0000 0.79777  0.62625  0.98047  Biso   1.000  Ne
  Ne121    1.0000 0.12532  0.39054  0.29027  Biso   1.000  Ne
  He121    1.0000 0.13297  0.36356  0.30851  Biso   1.000  He
  He122    1.0000 0.11382  0.35812  0.33567  Biso   1.000  He
  Ne122    1.0000 0.12514  0.33580  0.35498  Biso   1.000  Ne
  Ne123    1.0000 0.09115  0.27320  0.70448  Biso   1.000  Ne
  He123    1.0000 0.07800  0.28056  0.67259  Biso   1.000  He
  He124    1.0000 0.09409  0.30845  0.65996  Biso   1.000  He
  Ne124    1.0000 0.08486  0.32026  0.62895  Biso   1.000  Ne
  Ne125    1.0000 0.45248  0.29635  0.81573  Biso   1.000  Ne
  He125    1.0000 0.44411  0.32841  0.82932  Biso   1.000  He
  He126    1.0000 0.42122  0.34628  0.81298  Biso   1.000  He
  Ne126    1.0000 0.41617  0.37250  0.82949  Biso   1.000  Ne
  Ne127    1.0000 0.68652  0.66466  0.89276  Biso   1.000  Ne
  He127    1.0000 0.70145  0.68188  0.91864  Biso   1.000  He
  He128    1.0000 0.73313  0.68867  0.91689  Biso   1.000  He
  Ne128    1.0000 0.74428  0.70814  0.94228  Biso   1.000  Ne
  Ne129    1.0000 0.39107  0.65822  0.10648  Biso   1.000  Ne
  He129    1.0000 0.39770  0.68891  0.09549  Biso   1.000  He
  He130    1.0000 0.42770  0.69944  0.09906  Biso   1.000  He
  Ne130    1.0000 0.43100  0.72834  0.08278  Biso   1.000  Ne
  Ne131    1.0000 0.39402  0.09484  0.41757  Biso   1.000  Ne
  He131    1.0000 0.41726  0.11832  0.42833  Biso   1.000  He
  He132    1.0000 0.44884  0.10983  0.42439  Biso   1.000  He
  Ne132    1.0000 0.46489  0.09484  0.44951  Biso   1.000  Ne
  Ne133    1.0000 0.40868  0.69851  0.86377  Biso   1.000  Ne
  He133    1.0000 0.40510  0.69011  0.89464  Biso   1.000  He
  He134    1.0000 0.41764  0.65855  0.90277  Biso   1.000  He
  Ne134    1.0000 0.41067  0.64978  0.93524  Biso   1.000  Ne
  Ne135    1.0000 0.65764  0.49746  0.47023  Biso   1.000  Ne
  He135    1.0000 0.68567  0.51308  0.48096  Biso   1.000  He
  He136    1.0000 0.68644  0.52429  0.50968  Biso   1.000  He
  Ne136    1.0000 0.71384  0.54002  0.51944  Biso   1.000  Ne
  Ne137    1.0000 0.12355  0.65178  0.57980  Biso   1.000  Ne
  He137    1.0000 0.10767  0.67672  0.59086  Biso   1.000  He
  He138    1.0000 0.10751  0.68019  0.62390  Biso   1.000  He
  Ne138    1.0000 0.08598  0.70016  0.63464  Biso   1.000  Ne
  Ne139    1.0000 0.09704  0.07342  0.80173  Biso   1.000  Ne
  He139    1.0000 0.09564  0.10172  0.81880  Biso   1.000  He
  He140    1.0000 0.12565  0.10693  0.83112  Biso   1.000  He
  Ne140    1.0000 0.12936  0.13492  0.84624  Biso   1.000  Ne
  Ne141    1.0000 0.28500  0.34198  0.15546  Biso   1.000  Ne
  He141    1.0000 0.30562  0.34142  0.13052  Biso   1.000  He
  He142    1.0000 0.32425  0.31343  0.12531  Biso   1.000  He
  Ne142    1.0000 0.34911  0.31778  0.10175  Biso   1.000  Ne
  Ne143    1.0000 0.99313  0.06041  0.07000  Biso   1.000  Ne
  He143    1.0000 0.97808  0.08138  0.05327  Biso   1.000  He
  He144    1.0000 0.95815  0.09905  0.07246  Biso   1.000  He
  Ne144    1.0000 0.93719  0.11924  0.05377  Biso   1.000  Ne
  Ne145    1.0000 0.40405  0.88686  0.01166  Biso   1.000  Ne
  He145    1.0000 0.42810  0.90263  0.99529  Biso   1.000  He
  He146    1.0000 0.45691  0.90456  0.01324  Biso   1.000  He
  Ne146    1.0000 0.47772  0.92421  0.00127  Biso   1.000  Ne
  Ne147    1.0000 0.46706  0.38191  0.90961  Biso   1.000  Ne
  He147    1.0000 0.43591  0.38078  0.91892  Biso   1.000  He
  He148    1.0000 0.42425  0.40275  0.93751  Biso   1.000  He
  Ne148    1.0000 0.39213  0.41126  0.93483  Biso   1.000  Ne
  Ne149    1.0000 0.77020  0.64563  0.39952  Biso   1.000  Ne
  He149    1.0000 0.79858  0.62810  0.40760  Biso   1.000  He
  He150    1.0000 0.82496  0.65002  0.40582  Biso   1.000  He
  Ne150    1.0000 0.85315  0.63813  0.41922  Biso   1.000  Ne
  Ne151    1.0000 0.98567  0.40425  0.49169  Biso   1.000  Ne
  He151    1.0000 0.96674  0.42890  0.47909  Biso   1.000  He
  He152    1.0000 0.97897  0.44713  0.45629  Biso   1.000  He
  Ne152    1.0000 0.96032  0.47399  0.44701  Biso   1.000  Ne
  Ne153    1.0000 0.94324  0.00200  0.97365  Biso   1.000  Ne
  He153    1.0000 0.93895  0.00777  0.00635  Biso   1.000  He
  He154    1.0000 0.94445  0.98371  0.03311  Biso   1.000  He
  Ne154    1.0000 0.93687  0.99244  0.06486  Biso   1.000  Ne
  Ne155    1.0000 0.59767  0.05011  0.61612  Biso   1.000  Ne
  He155    1.0000 0.59093  0.03363  0.58891  Biso   1.000  He
  He156    1.0000 0.55849  0.02726  0.58559  Biso   1.000  He
  Ne156    1.0000 0.55514  0.00232  0.56451  Biso   1.000  Ne
  Ne157    1.0000 0.60005  0.60830  0.23306  Biso   1.000  Ne
  He157    1.0000 0.60074  0.63441  0.24899  Biso   1.000  He
  He158    1.0000 0.59212  0.63637  0.27922  Biso   1.000  He
  Ne158    1.0000 0.59827  0.66675  0.29109  Biso   1.000  Ne
  Ne159    1.0000 0.33639  0.07278  0.65783  Biso   1.000  Ne
  He159    1.0000 0.36117  0.08128  0.67752  Biso   1.000  He
  He160    1.0000 0.38030  0.10832  0.66704  Biso   1.000  He
  Ne160    1.0000 0.40770  0.11031  0.68330  Biso   1.000  Ne
  Ne161    1.0000 0.25956  0.84841  0.56077  Biso   1.000  Ne
  He161    1.0000 0.24608  0.82066  0.57007  Biso   1.000  He
  He162    1.0000 0.21676  0.81284  0.55716  Biso   1.000  He
  Ne162    1.0000 0.20614  0.78403  0.56650  Biso   1.000  Ne
  Ne163    1.0000 0.13097  0.55473  0.69911  Biso   1.000  Ne
  He163    1.0000 0.11829  0.58498  0.69988  Biso   1.000  He
  He164    1.0000 0.12275  0.60229  0.72603  Biso   1.000  He
  Ne164    1.0000 0.11394  0.63288  0.72298  Biso   1.000  Ne
  Ne165    1.0000 0.89186  0.66637  0.68584  Biso   1.000  Ne
  He165    1.0000 0.90150  0.69745  0.68196  Biso   1.000  He
  He166    1.0000 0.90431  0.70712  0.65028  Biso   1.000  He
  Ne166    1.0000 0.91749  0.73830  0.64861  Biso   1.000  Ne
  Ne167    1.0000 0.98824  0.43410  0.57003  Biso   1.000  Ne
  He167    1.0000 0.96454  0.43786  0.59443  Biso   1.000  He
  He168    1.0000 0.94101  0.41566  0.59042  Biso   1.000  He
  Ne168    1.0000 0.91228  0.41881  0.60801  Biso   1.000  Ne
  Ne169    1.0000 0.89050  0.40086  0.41880  Biso   1.000  Ne
  He169    1.0000 0.91855  0.39664  0.40292  Biso   1.000  He
  He170    1.0000 0.92554  0.41944  0.37996  Biso   1.000  He
  Ne170    1.0000 0.94903  0.40868  0.35845  Biso   1.000  Ne
  Ne171    1.0000 0.59386  0.73930  0.41533  Biso   1.000  Ne
  He171    1.0000 0.58622  0.76162  0.39368  Biso   1.000  He
  He172    1.0000 0.60051  0.79057  0.39865  Biso   1.000  He
  Ne172    1.0000 0.59378  0.81108  0.37486  Biso   1.000  Ne
  Ne173    1.0000 0.89656  0.78668  0.92207  Biso   1.000  Ne
  He173    1.0000 0.89689  0.75624  0.90323  Biso   1.000  He
  He174    1.0000 0.87192  0.73869  0.91022  Biso   1.000  He
  Ne174    1.0000 0.86926  0.71073  0.89020  Biso   1.000  Ne
  Ne175    1.0000 0.54882  0.88401  0.83597  Biso   1.000  Ne
  He175    1.0000 0.51814  0.89899  0.83726  Biso   1.000  He
  He176    1.0000 0.50260  0.89785  0.80744  Biso   1.000  He
  Ne176    1.0000 0.47457  0.91626  0.81116  Biso   1.000  Ne
  Ne177    1.0000 0.69709  0.36124  0.10345  Biso   1.000  Ne
  He177    1.0000 0.69779  0.33400  0.08176  Biso   1.000  He
  He178    1.0000 0.69508  0.30683  0.09674  Biso   1.000  He
  Ne178    1.0000 0.70102  0.28025  0.07756  Biso   1.000  Ne
  Ne179    1.0000 0.99279  0.55174  0.80717  Biso   1.000  Ne
  He179    1.0000 0.02477  0.54831  0.81115  Biso   1.000  He
  He180    1.0000 0.03998  0.57861  0.80792  Biso   1.000  He
  Ne180    1.0000 0.07318  0.57997  0.81123  Biso   1.000  Ne
  Ne181    1.0000 0.40840  0.81365  0.59907  Biso   1.000  Ne
  He181    1.0000 0.41943  0.81180  0.63067  Biso   1.000  He
  He182    1.0000 0.39474  0.80467  0.65227  Biso   1.000  He
  Ne182    1.0000 0.40286  0.80485  0.68466  Biso   1.000  Ne
  Ne183    1.0000 0.08933  0.58099  0.60654  Biso   1.000  Ne
  He183    1.0000 0.06492  0.58681  0.58547  Biso   1.000  He
  He184    1.0000 0.06500  0.57218  0.55757  Biso   1.000  He
  Ne184    1.0000 0.04018  0.57986  0.53923  Biso   1.000  Ne
  Ne185    1.0000 0.31534  0.56564  0.92429  Biso   1.000  Ne
  He185    1.0000 0.32212  0.59469  0.91650  Biso   1.000  He
  He186    1.0000 0.32473  0.61607  0.94142  Biso   1.000  He
  Ne186    1.0000 0.32991  0.64774  0.93083  Biso   1.000  Ne
  Ne187    1.0000 0.31029  0.83895  0.66592  Biso   1.000  Ne
  He187    1.0000 0.32020  0.85313  0.69546  Biso   1.000  He
  He188    1.0000 0.30078  0.87690  0.70988  Biso   1.000  He
  Ne188    1.0000 0.31475  0.88900  0.73878  Biso   1.000  Ne
  Ne189    1.0000 0.87758  0.55846  0.56759  Biso   1.000  Ne
  He189    1.0000 0.90342  0.54079  0.55466  Biso   1.000  He
  He190    1.0000 0.93229  0.54669  0.56922  Biso   1.000  He
  Ne190    1.0000 0.95790  0.52752  0.56046  Biso   1.000  Ne
  Ne191    1.0000 0.94719  0.33900  0.57663  Biso   1.000  Ne
  He191    1.0000 0.91648  0.32615  0.57610  Biso   1.000  He
  He192    1.0000 0.89531  0.33280  0.60107  Biso   1.000  He
  Ne192    1.0000 0.86862  0.31700  0.59645  Biso   1.000  Ne
  Ne193    1.0000 0.25034  0.54668  0.14000  Biso   1.000  Ne
  He193    1.0000 0.28196  0.54722  0.12675  Biso   1.000  He
  He194    1.0000 0.30194  0.57377  0.12451  Biso   1.000  He
  Ne194    1.0000 0.33607  0.56602  0.12435  Biso   1.000  Ne
  Ne195    1.0000 0.59175  0.55987  0.14941  Biso   1.000  Ne
  He195    1.0000 0.59538  0.56903  0.11685  Biso   1.000  He
  He196    1.0000 0.58493  0.54570  0.09577  Biso   1.000  He
  Ne196    1.0000 0.59098  0.55460  0.06602  Biso   1.000  Ne
  Ne197    1.0000 0.43427  0.15583  0.30176  Biso   1.000  Ne
  He197    1.0000 0.42760  0.12814  0.31551  Biso   1.000  He
  He198    1.0000 0.44856  0.11953  0.34145  Biso   1.000  He
  Ne198    1.0000 0.44742  0.08716  0.34752  Biso   1.000  Ne
  Ne199    1.0000 0.57741  0.39970  0.75123  Biso   1.000  Ne
  He199    1.0000 0.60553  0.41247  0.76399  Biso   1.000  He
  He200    1.0000 0.62152  0.39413  0.78381  Biso   1.000  He
  Ne200    1.0000 0.65002  0.40759  0.79454  Biso   1.000  Ne
  Ne201    1.0000 0.06989  0.41166  0.63784  Biso   1.000  Ne
  He201    1.0000 0.06312  0.41791  0.60545  Biso   1.000  He
  He202    1.0000 0.06934  0.39081  0.58364  Biso   1.000  He
  Ne202    1.0000 0.06484  0.39578  0.55063  Biso   1.000  Ne
  Ne203    1.0000 0.85856  0.10519  0.89821  Biso   1.000  Ne
  He203    1.0000 0.88299  0.11817  0.88251  Biso   1.000  He
  He204    1.0000 0.90216  0.09687  0.86651  Biso   1.000  He
  Ne204    1.0000 0.92747  0.10775  0.85397  Biso   1.000  Ne
  Ne205    1.0000 0.72658  0.08220  0.63931  Biso   1.000  Ne
  He205    1.0000 0.69895  0.07799  0.61834  Biso   1.000  He
  He206    1.0000 0.70656  0.06125  0.59028  Biso   1.000  He
  Ne206    1.0000 0.67965  0.06086  0.57240  Biso   1.000  Ne
  Ne207    1.0000 0.73123  0.63376  0.10190  Biso   1.000  Ne
  He207    1.0000 0.71839  0.60331  0.08958  Biso   1.000  He
  He208    1.0000 0.68663  0.59708  0.09537  Biso   1.000  He
  Ne208    1.0000 0.67703  0.56375  0.08718  Biso   1.000  Ne
  Ne209    1.0000 0.94012  0.08817  0.25276  Biso   1.000  Ne
  He209    1.0000 0.93460  0.07824  0.22313  Biso   1.000  He
  He210    1.0000 0.92273  0.10445  0.20416  Biso   1.000  He
  Ne210    1.0000 0.92327  0.10212  0.17105  Biso   1.000  Ne
  Ne211    1.0000 0.22589  0.16570  0.61974  Biso   1.000  Ne
  He211    1.0000 0.25645  0.16245  0.60922  Biso   1.000  He
  He212    1.0000 0.28208  0.16765  0.63189  Biso   1.000  He
  Ne212    1.0000 0.31212  0.17208  0.62034  Biso   1.000  Ne
  Ne213    1.0000 0.28195  0.07235  0.13320  Biso   1.000  Ne
  He213    1.0000 0.26449  0.09682  0.15162  Biso   1.000  He
  He214    1.0000 0.23425  0.08514  0.15998  Biso   1.000  He
  Ne214    1.0000 0.21946  0.10538  0.18066  Biso   1.000  Ne
  Ne215    1.0000 0.14921  0.79807  0.92556  Biso   1.000  Ne
  He215    1.0000 0.12887  0.81960  0.91092  Biso   1.000  He
  He216    1.0000 0.11660  0.80985  0.88361  Biso   1.000  He
  Ne216    1.0000 0.09523  0.82889  0.86887  Biso   1.000  Ne
  Ne217    1.0000 0.43771  0.87097  0.34149  Biso   1.000  Ne
  He217    1.0000 0.41070  0.87870  0.32427  Biso   1.000  He
  He218    1.0000 0.40295  0.91143  0.32287  Biso   1.000  He
  Ne218    1.0000 0.37550  0.91378  0.30406  Biso   1.000  Ne
  Ne219    1.0000 0.89799  0.92360  0.10730  Biso   1.000  Ne
  He219    1.0000 0.89432  0.88959  0.10367  Biso   1.000  He
  He220    1.0000 0.86255  0.88072  0.10311  Biso   1.000  He
  Ne220    1.0000 0.85739  0.84788  0.09742  Biso   1.000  Ne
  Ne221    1.0000 0.63937  0.20030  0.60727  Biso   1.000  Ne
  He221    1.0000 0.64130  0.17563  0.58550  Biso   1.000  He
  He222    1.0000 0.63206  0.14832  0.60077  Biso   1.000  He
  Ne222    1.0000 0.62018  0.12393  0.57915  Biso   1.000  Ne
  Ne223    1.0000 0.36930  0.29963  0.21710  Biso   1.000  Ne
  He223    1.0000 0.39450  0.28026  0.20280  Biso   1.000  He
  He224    1.0000 0.41913  0.29418  0.18999  Biso   1.000  He
  Ne224    1.0000 0.44303  0.27587  0.17631  Biso   1.000  Ne
  Ne225    1.0000 0.56998  0.91878  0.62681  Biso   1.000  Ne
  He225    1.0000 0.56856  0.88821  0.61513  Biso   1.000  He
  He226    1.0000 0.58953  0.86417  0.63141  Biso   1.000  He
  Ne226    1.0000 0.58965  0.83327  0.61807  Biso   1.000  Ne
  Ne227    1.0000 0.32057  0.76090  0.91260  Biso   1.000  Ne
  He227    1.0000 0.30457  0.75398  0.88594  Biso   1.000  He
  He228    1.0000 0.30436  0.72293  0.87736  Biso   1.000  He
  Ne228    1.0000 0.29820  0.71911  0.84279  Biso   1.000  Ne
  Ne229    1.0000 0.14349  0.25996  0.07184  Biso   1.000  Ne
  He229    1.0000 0.11172  0.26299  0.07370  Biso   1.000  He
  He230    1.0000 0.09352  0.27154  0.04834  Biso   1.000  He
  Ne230    1.0000 0.06128  0.27081  0.05668  Biso   1.000  Ne
  Ne231    1.0000 0.09320  0.07887  0.16745  Biso   1.000  Ne
  He231    1.0000 0.09677  0.07524  0.13399  Biso   1.000  He
  He232    1.0000 0.06937  0.08031  0.11335  Biso   1.000  He
  Ne232    1.0000 0.07533  0.07227  0.08182  Biso   1.000  Ne
  Ne233    1.0000 0.94517  0.85140  0.84512  Biso   1.000  Ne
  He233    1.0000 0.92560  0.87152  0.82615  Biso   1.000  He
  He234    1.0000 0.94070  0.87242  0.79715  Biso   1.000  He
  Ne234    1.0000 0.92501  0.89273  0.77658  Biso   1.000  Ne
  Ne235    1.0000 0.64082  0.07207  0.71064  Biso   1.000  Ne
  He235    1.0000 0.64168  0.10603  0.70537  Biso   1.000  He
  He236    1.0000 0.63981  0.12298  0.73399  Biso   1.000  He
  Ne236    1.0000 0.63435  0.15572  0.72920  Biso   1.000  Ne
  Ne237    1.0000 0.95501  0.55221  0.48054  Biso   1.000  Ne
  He237    1.0000 0.95117  0.57939  0.46820  Biso   1.000  He
  He238    1.0000 0.94752  0.58050  0.43588  Biso   1.000  He
  Ne238    1.0000 0.94279  0.61059  0.42602  Biso   1.000  Ne
  Ne239    1.0000 0.61132  0.92544  0.45692  Biso   1.000  Ne
  He239    1.0000 0.58903  0.94143  0.44071  Biso   1.000  He
  He240    1.0000 0.56066  0.92478  0.44121  Biso   1.000  He
  Ne240    1.0000 0.53435  0.93832  0.42369  Biso   1.000  Ne
  Ne241    1.0000 0.50308  0.57756  0.98315  Biso   1.000  Ne
  He241    1.0000 0.49839  0.54913  0.99361  Biso   1.000  He
  He242    1.0000 0.50112  0.54801  0.02621  Biso   1.000  He
  Ne242    1.0000 0.49735  0.51583  0.03711  Biso   1.000  Ne
  Ne243    1.0000 0.92803  0.24241  0.87081  Biso   1.000  Ne
  He243    1.0000 0.92765  0.21244  0.88622  Biso   1.000  He
  He244    1.0000 0.95193  0.19242  0.87939  Biso   1.000  He
  Ne244    1.0000 0.95248  0.16349  0.89534  Biso   1.000  Ne
  Ne245    1.0000 0.12118  0.73807  0.42440  Biso   1.000  Ne
  He245    1.0000 0.10050  0.71267  0.42543  Biso   1.000  He
  He246    1.0000 0.11312  0.68430  0.40883  Biso   1.000  He
  Ne246    1.0000 0.08870  0.65775  0.40759  Biso   1.000  Ne
  Ne247    1.0000 0.03265  0.98527  0.92616  Biso   1.000  Ne
  He247    1.0000 0.05544  0.95842  0.92568  Biso   1.000  He
  He248    1.0000 0.08270  0.96427  0.94299  Biso   1.000  He
  Ne248    1.0000 0.10571  0.94251  0.94206  Biso   1.000  Ne
  Ne249    1.0000 0.58194  0.43795  0.97774  Biso   1.000  Ne
  He249    1.0000 0.58579  0.46405  0.95768  Biso   1.000  He
  He250    1.0000 0.56362  0.48678  0.96220  Biso   1.000  He
  Ne250    1.0000 0.56962  0.51598  0.94767  Biso   1.000  Ne
  Ne251    1.0000 0.44739  0.27823  0.05677  Biso   1.000  Ne
  He251    1.0000 0.44303  0.30217  0.08093  Biso   1.000  He
  He252    1.0000 0.45215  0.33047  0.07351  Biso   1.000  He
  Ne252    1.0000 0.44592  0.35217  0.09509  Biso   1.000  Ne
  Ne253    1.0000 0.56776  0.45811  0.07595  Biso   1.000  Ne
  He253    1.0000 0.59503  0.44666  0.06096  Biso   1.000  He
  He254    1.0000 0.59528  0.41228  0.05953  Biso   1.000  He
  Ne254    1.0000 0.62376  0.40104  0.07142  Biso   1.000  Ne
  Ne255    1.0000 0.72158  0.21892  0.03273  Biso   1.000  Ne
  He255    1.0000 0.72864  0.18898  0.02234  Biso   1.000  He
  He256    1.0000 0.70129  0.17447  0.01127  Biso   1.000  He
  Ne256    1.0000 0.70551  0.14361  0.99801  Biso   1.000  Ne
  Ne257    1.0000 0.86060  0.34070  0.23292  Biso   1.000  Ne
  He257    1.0000 0.87132  0.37228  0.22071  Biso   1.000  He
  He258    1.0000 0.85422  0.38264  0.19494  Biso   1.000  He
  Ne258    1.0000 0.86384  0.40740  0.18156  Biso   1.000  Ne
  Ne259    1.0000 0.64633  0.29427  0.81837  Biso   1.000  Ne
  He259    1.0000 0.63792  0.30740  0.84864  Biso   1.000  He
  He260    1.0000 0.64145  0.28384  0.86980  Biso   1.000  He
  Ne260    1.0000 0.63422  0.29287  0.90027  Biso   1.000  Ne
