data_image0
_cell_length_a       46.6443
_cell_length_b       46.6497
_cell_length_c       46.4692
_cell_angle_alpha    90
_cell_angle_beta     90
_cell_angle_gamma    90

_symmetry_space_group_name_H-M    "P 1"
_symmetry_int_tables_number       1

loop_
  _symmetry_equiv_pos_as_xyz
  'x, y, z'

loop_
  _atom_site_label
  _atom_site_occupancy
  _atom_site_fract_x
  _atom_site_fract_y
  _atom_site_fract_z
  _atom_site_thermal_displace_type
  _atom_site_B_iso_or_equiv
  _atom_site_type_symbol
  Ne1      1.0000 0.45601  0.12063  0.38409  Biso   1.000  Ne
  He1      1.0000 0.43898  0.14716  0.38429  Biso   1.000  He
  He2      1.0000 0.45480  0.17254  0.37252  Biso   1.000  He
  Ne2      1.0000 0.43640  0.19883  0.36446  Biso   1.000  Ne
  Ne3      1.0000 0.35851  0.92327  0.62713  Biso   1.000  Ne
  He3      1.0000 0.38359  0.92024  0.65087  Biso   1.000  He
  He4      1.0000 0.41523  0.92639  0.63779  Biso   1.000  He
  Ne4      1.0000 0.44128  0.91948  0.66071  Biso   1.000  Ne
  Ne5      1.0000 0.94824  0.43497  0.42084  Biso   1.000  Ne
  He5      1.0000 0.95349  0.43639  0.38527  Biso   1.000  He
  He6      1.0000 0.93744  0.41581  0.36884  Biso   1.000  He
  Ne6      1.0000 0.93855  0.42004  0.33552  Biso   1.000  Ne
  Ne7      1.0000 0.60842  0.58542  0.05314  Biso   1.000  Ne
  He7      1.0000 0.59937  0.55351  0.04678  Biso   1.000  He
  He8      1.0000 0.57237  0.54809  0.02745  Biso   1.000  He
  Ne8      1.0000 0.56296  0.51537  0.02467  Biso   1.000  Ne
  Ne9      1.0000 0.13037  0.56168  0.57588  Biso   1.000  Ne
  He9      1.0000 0.13076  0.59413  0.57961  Biso   1.000  He
  He10     1.0000 0.10829  0.60478  0.59851  Biso   1.000  He
  Ne10     1.0000 0.10907  0.63872  0.59703  Biso   1.000  Ne
  Ne11     1.0000 0.34061  0.39567  0.90920  Biso   1.000  Ne
  He11     1.0000 0.37199  0.40166  0.89801  Biso   1.000  He
  He12     1.0000 0.39391  0.40934  0.92162  Biso   1.000  He
  Ne12     1.0000 0.42560  0.41361  0.91258  Biso   1.000  Ne
  Ne13     1.0000 0.01034  0.89454  0.94903  Biso   1.000  Ne
  He13     1.0000 0.98235  0.90363  0.93171  Biso   1.000  He
  He14     1.0000 0.96430  0.88039  0.92293  Biso   1.000  He
  Ne14     1.0000 0.93507  0.89143  0.91199  Biso   1.000  Ne
  Ne15     1.0000 0.95339  0.84675  0.16649  Biso   1.000  Ne
  He15     1.0000 0.96663  0.82716  0.14234  Biso   1.000  He
  He16     1.0000 0.95492  0.83105  0.10962  Biso   1.000  He
  Ne16     1.0000 0.96987  0.81656  0.08605  Biso   1.000  Ne
  Ne17     1.0000 0.48786  0.58753  0.04400  Biso   1.000  Ne
  He17     1.0000 0.47107  0.55611  0.04149  Biso   1.000  He
  He18     1.0000 0.47377  0.53739  0.06625  Biso   1.000  He
  Ne18     1.0000 0.46199  0.50843  0.06479  Biso   1.000  Ne
  Ne19     1.0000 0.71885  0.15496  0.59205  Biso   1.000  Ne
  He19     1.0000 0.73013  0.12468  0.59721  Biso   1.000  He
  He20     1.0000 0.70737  0.10053  0.60511  Biso   1.000  He
  Ne20     1.0000 0.72497  0.07388  0.61920  Biso   1.000  Ne
  Ne21     1.0000 0.62799  0.87427  0.39586  Biso   1.000  Ne
  He21     1.0000 0.60466  0.87821  0.41965  Biso   1.000  He
  He22     1.0000 0.61310  0.90038  0.44202  Biso   1.000  He
  Ne22     1.0000 0.58778  0.90884  0.46179  Biso   1.000  Ne
  Ne23     1.0000 0.37261  0.85208  0.59655  Biso   1.000  Ne
  He23     1.0000 0.39253  0.82685  0.59581  Biso   1.000  He
  He24     1.0000 0.42392  0.83147  0.60063  Biso   1.000  He
  Ne24     1.0000 0.43614  0.83503  0.63087  Biso   1.000  Ne
  Ne25     1.0000 0.44784  0.09107  0.66644  Biso   1.000  Ne
  He25     1.0000 0.44704  0.07812  0.63600  Biso   1.000  He
  He26     1.0000 0.42027  0.08479  0.62124  Biso   1.000  He
  Ne26     1.0000 0.42121  0.07082  0.59130  Biso   1.000  Ne
  Ne27     1.0000 0.62943  0.02850  0.57192  Biso   1.000  Ne
  He27     1.0000 0.60508  0.04270  0.55512  Biso   1.000  He
  He28     1.0000 0.61319  0.05535  0.52634  Biso   1.000  He
  Ne28     1.0000 0.58922  0.07006  0.51319  Biso   1.000  Ne
  Ne29     1.0000 0.96254  0.71776  0.57709  Biso   1.000  Ne
  He29     1.0000 0.94141  0.70006  0.59752  Biso   1.000  He
  He30     1.0000 0.91598  0.69168  0.57786  Biso   1.000  He
  Ne30     1.0000 0.89417  0.67228  0.59374  Biso   1.000  Ne
  Ne31     1.0000 0.12317  0.85291  0.15318  Biso   1.000  Ne
  He31     1.0000 0.13855  0.84094  0.12579  Biso   1.000  He
  He32     1.0000 0.16071  0.81999  0.13340  Biso   1.000  He
  Ne32     1.0000 0.17636  0.81082  0.10630  Biso   1.000  Ne
  Ne33     1.0000 0.96267  0.55075  0.43388  Biso   1.000  Ne
  He33     1.0000 0.93776  0.57210  0.42962  Biso   1.000  He
  He34     1.0000 0.91604  0.56341  0.41018  Biso   1.000  He
  Ne34     1.0000 0.88874  0.58195  0.41304  Biso   1.000  Ne
  Ne35     1.0000 0.92615  0.18534  0.84779  Biso   1.000  Ne
  He35     1.0000 0.92532  0.16025  0.86807  Biso   1.000  He
  He36     1.0000 0.94310  0.16414  0.89718  Biso   1.000  He
  Ne36     1.0000 0.93988  0.13761  0.91617  Biso   1.000  Ne
  Ne37     1.0000 0.10560  0.17675  0.86275  Biso   1.000  Ne
  He37     1.0000 0.09834  0.16172  0.89009  Biso   1.000  He
  He38     1.0000 0.10991  0.17773  0.91670  Biso   1.000  He
  Ne38     1.0000 0.10061  0.16387  0.94486  Biso   1.000  Ne
  Ne39     1.0000 0.08635  0.09026  0.97580  Biso   1.000  Ne
  He39     1.0000 0.10427  0.06287  0.97897  Biso   1.000  He
  He40     1.0000 0.10264  0.04208  0.95281  Biso   1.000  He
  Ne40     1.0000 0.11968  0.01349  0.95150  Biso   1.000  Ne
  Ne41     1.0000 0.87868  0.34455  0.42441  Biso   1.000  Ne
  He41     1.0000 0.91061  0.33644  0.43231  Biso   1.000  He
  He42     1.0000 0.93830  0.35411  0.42175  Biso   1.000  He
  Ne42     1.0000 0.96528  0.34253  0.43437  Biso   1.000  Ne
  Ne43     1.0000 0.42458  0.12679  0.29042  Biso   1.000  Ne
  He43     1.0000 0.45309  0.12894  0.27701  Biso   1.000  He
  He44     1.0000 0.45711  0.15110  0.25341  Biso   1.000  He
  Ne44     1.0000 0.48668  0.14888  0.23801  Biso   1.000  Ne
  Ne45     1.0000 0.44126  0.58764  0.92080  Biso   1.000  Ne
  He45     1.0000 0.41277  0.59953  0.92894  Biso   1.000  He
  He46     1.0000 0.38902  0.58248  0.91642  Biso   1.000  He
  Ne46     1.0000 0.35880  0.59091  0.92622  Biso   1.000  Ne
  Ne47     1.0000 0.96023  0.16438  0.23576  Biso   1.000  Ne
  He47     1.0000 0.95118  0.13276  0.24249  Biso   1.000  He
  He48     1.0000 0.92137  0.12958  0.25635  Biso   1.000  He
  Ne48     1.0000 0.90944  0.09806  0.25376  Biso   1.000  Ne
  Ne49     1.0000 0.11711  0.12511  0.24748  Biso   1.000  Ne
  He49     1.0000 0.14766  0.11772  0.23289  Biso   1.000  He
  He50     1.0000 0.15676  0.08614  0.23826  Biso   1.000  He
  Ne50     1.0000 0.18130  0.07669  0.21988  Biso   1.000  Ne
  Ne51     1.0000 0.42934  0.92224  0.56342  Biso   1.000  Ne
  He51     1.0000 0.45859  0.91897  0.55277  Biso   1.000  He
  He52     1.0000 0.48410  0.91908  0.57444  Biso   1.000  He
  Ne52     1.0000 0.51296  0.91279  0.56029  Biso   1.000  Ne
  Ne53     1.0000 0.98051  0.76756  0.87752  Biso   1.000  Ne
  He53     1.0000 0.97495  0.78914  0.85078  Biso   1.000  He
  He54     1.0000 0.94475  0.78688  0.83940  Biso   1.000  He
  Ne54     1.0000 0.93753  0.80452  0.81307  Biso   1.000  Ne
  Ne55     1.0000 0.11061  0.22690  0.10935  Biso   1.000  Ne
  He55     1.0000 0.12834  0.19717  0.11675  Biso   1.000  He
  He56     1.0000 0.12840  0.18725  0.14861  Biso   1.000  He
  Ne56     1.0000 0.10811  0.16012  0.15384  Biso   1.000  Ne
  Ne57     1.0000 0.85354  0.85715  0.14410  Biso   1.000  Ne
  He57     1.0000 0.85287  0.87495  0.17123  Biso   1.000  He
  He58     1.0000 0.86383  0.90656  0.16737  Biso   1.000  He
  Ne58     1.0000 0.87004  0.91937  0.19772  Biso   1.000  Ne
  Ne59     1.0000 0.41989  0.43744  0.08450  Biso   1.000  Ne
  He59     1.0000 0.39019  0.42508  0.09413  Biso   1.000  He
  He60     1.0000 0.38395  0.42246  0.12480  Biso   1.000  He
  Ne60     1.0000 0.35287  0.41323  0.12921  Biso   1.000  Ne
  Ne61     1.0000 0.15216  0.10300  0.11602  Biso   1.000  Ne
  He61     1.0000 0.12900  0.09382  0.08943  Biso   1.000  He
  He62     1.0000 0.10128  0.11173  0.09269  Biso   1.000  He
  Ne62     1.0000 0.07807  0.10650  0.06926  Biso   1.000  Ne
  Ne63     1.0000 0.96876  0.40309  0.63480  Biso   1.000  Ne
  He63     1.0000 0.95929  0.39178  0.66575  Biso   1.000  He
  He64     1.0000 0.96027  0.41513  0.69090  Biso   1.000  He
  Ne64     1.0000 0.95444  0.40395  0.72206  Biso   1.000  Ne
  Ne65     1.0000 0.11795  0.54831  0.41858  Biso   1.000  Ne
  He65     1.0000 0.15013  0.55524  0.42956  Biso   1.000  He
  He66     1.0000 0.17024  0.57665  0.41017  Biso   1.000  He
  Ne66     1.0000 0.19980  0.58821  0.42286  Biso   1.000  Ne
  Ne67     1.0000 0.44715  0.16692  0.66074  Biso   1.000  Ne
  He67     1.0000 0.45241  0.20096  0.66720  Biso   1.000  He
  He68     1.0000 0.47074  0.22311  0.64718  Biso   1.000  He
  Ne68     1.0000 0.46385  0.25577  0.65799  Biso   1.000  Ne
  Ne69     1.0000 0.60608  0.83028  0.77752  Biso   1.000  Ne
  He69     1.0000 0.62510  0.80506  0.77583  Biso   1.000  He
  He70     1.0000 0.61243  0.78020  0.75926  Biso   1.000  He
  Ne70     1.0000 0.62610  0.75111  0.76168  Biso   1.000  Ne
  Ne71     1.0000 0.62420  0.78839  0.65819  Biso   1.000  Ne
  He71     1.0000 0.63843  0.79844  0.62941  Biso   1.000  He
  He72     1.0000 0.61746  0.80085  0.60429  Biso   1.000  He
  Ne72     1.0000 0.63275  0.81287  0.57607  Biso   1.000  Ne
  Ne73     1.0000 0.12380  0.55490  0.25042  Biso   1.000  Ne
  He73     1.0000 0.14891  0.56141  0.26951  Biso   1.000  He
  He74     1.0000 0.13743  0.57666  0.29770  Biso   1.000  He
  Ne74     1.0000 0.15842  0.58026  0.32437  Biso   1.000  Ne
  Ne75     1.0000 0.45433  0.63687  0.09161  Biso   1.000  Ne
  He75     1.0000 0.42384  0.64535  0.09415  Biso   1.000  He
  He76     1.0000 0.42086  0.67662  0.09950  Biso   1.000  He
  Ne76     1.0000 0.38880  0.69007  0.10155  Biso   1.000  Ne
  Ne77     1.0000 0.35869  0.59021  0.10904  Biso   1.000  Ne
  He77     1.0000 0.37313  0.58513  0.13685  Biso   1.000  He
  He78     1.0000 0.35364  0.59268  0.16279  Biso   1.000  He
  Ne78     1.0000 0.36849  0.59190  0.19446  Biso   1.000  Ne
  Ne79     1.0000 0.45384  0.40017  0.81876  Biso   1.000  Ne
  He79     1.0000 0.45990  0.36973  0.82772  Biso   1.000  He
  He80     1.0000 0.44886  0.36491  0.85600  Biso   1.000  He
  Ne80     1.0000 0.44967  0.33386  0.86571  Biso   1.000  Ne
  Ne81     1.0000 0.45341  0.90843  0.35450  Biso   1.000  Ne
  He81     1.0000 0.46624  0.90293  0.32390  Biso   1.000  He
  He82     1.0000 0.44473  0.90437  0.29601  Biso   1.000  He
  Ne82     1.0000 0.45849  0.89236  0.26804  Biso   1.000  Ne
  Ne83     1.0000 0.14895  0.42408  0.59882  Biso   1.000  Ne
  He83     1.0000 0.14196  0.39103  0.60589  Biso   1.000  He
  He84     1.0000 0.12608  0.38902  0.63401  Biso   1.000  He
  Ne84     1.0000 0.11565  0.35806  0.63988  Biso   1.000  Ne
  Ne85     1.0000 0.81878  0.41776  0.65507  Biso   1.000  Ne
  He85     1.0000 0.83081  0.40712  0.62537  Biso   1.000  He
  He86     1.0000 0.85488  0.42563  0.61378  Biso   1.000  He
  Ne86     1.0000 0.86402  0.41626  0.58456  Biso   1.000  Ne
  Ne87     1.0000 0.60311  0.05302  0.72971  Biso   1.000  Ne
  He87     1.0000 0.61571  0.05618  0.70210  Biso   1.000  He
  He88     1.0000 0.64514  0.06958  0.70133  Biso   1.000  He
  Ne88     1.0000 0.66097  0.06747  0.67063  Biso   1.000  Ne
  Ne89     1.0000 0.62646  0.68152  0.11181  Biso   1.000  Ne
  He89     1.0000 0.63611  0.65870  0.09345  Biso   1.000  He
  He90     1.0000 0.66902  0.65246  0.09551  Biso   1.000  He
  Ne90     1.0000 0.67934  0.62446  0.07990  Biso   1.000  Ne
  Ne91     1.0000 0.12085  0.09760  0.79486  Biso   1.000  Ne
  He91     1.0000 0.12321  0.09213  0.82971  Biso   1.000  He
  He92     1.0000 0.09619  0.08260  0.84255  Biso   1.000  He
  Ne92     1.0000 0.09683  0.07770  0.87620  Biso   1.000  Ne
  Ne93     1.0000 0.41261  0.87340  0.41843  Biso   1.000  Ne
  He93     1.0000 0.38123  0.88624  0.41366  Biso   1.000  He
  He94     1.0000 0.37958  0.91054  0.39120  Biso   1.000  He
  Ne94     1.0000 0.34796  0.92170  0.38509  Biso   1.000  Ne
  Ne95     1.0000 0.90781  0.57507  0.63911  Biso   1.000  Ne
  He95     1.0000 0.93822  0.56567  0.63079  Biso   1.000  He
  He96     1.0000 0.94934  0.57690  0.60360  Biso   1.000  He
  Ne96     1.0000 0.97725  0.56300  0.59472  Biso   1.000  Ne
  Ne97     1.0000 0.21497  0.93362  0.08258  Biso   1.000  Ne
  He97     1.0000 0.18758  0.91244  0.07518  Biso   1.000  He
  He98     1.0000 0.16075  0.92905  0.08330  Biso   1.000  He
  Ne98     1.0000 0.13260  0.90969  0.08505  Biso   1.000  Ne
  Ne99     1.0000 0.12573  0.39685  0.42165  Biso   1.000  Ne
  He99     1.0000 0.15673  0.41129  0.42065  Biso   1.000  He
  He100    1.0000 0.17938  0.39389  0.43822  Biso   1.000  He
  Ne100    1.0000 0.20864  0.40723  0.44260  Biso   1.000  Ne
  Ne101    1.0000 0.02080  0.42338  0.58572  Biso   1.000  Ne
  He101    1.0000 0.00261  0.43288  0.55885  Biso   1.000  He
  He102    1.0000 0.98464  0.46130  0.56258  Biso   1.000  He
  Ne102    1.0000 0.96745  0.46821  0.53743  Biso   1.000  Ne
  Ne103    1.0000 0.59815  0.42875  0.91223  Biso   1.000  Ne
  He103    1.0000 0.58613  0.40249  0.92767  Biso   1.000  He
  He104    1.0000 0.60894  0.38057  0.93085  Biso   1.000  He
  Ne104    1.0000 0.60123  0.35199  0.94583  Biso   1.000  Ne
  Ne105    1.0000 0.62218  0.25360  0.20996  Biso   1.000  Ne
  He105    1.0000 0.63107  0.28438  0.21162  Biso   1.000  He
  He106    1.0000 0.61966  0.30371  0.18832  Biso   1.000  He
  Ne106    1.0000 0.62212  0.33446  0.19473  Biso   1.000  Ne
  Ne107    1.0000 0.70879  0.91729  0.60549  Biso   1.000  Ne
  He107    1.0000 0.74084  0.91325  0.59671  Biso   1.000  He
  He108    1.0000 0.75487  0.88479  0.60074  Biso   1.000  He
  Ne108    1.0000 0.78169  0.88027  0.58326  Biso   1.000  Ne
  Ne109    1.0000 0.95559  0.92612  0.15362  Biso   1.000  Ne
  He109    1.0000 0.94931  0.92067  0.12235  Biso   1.000  He
  He110    1.0000 0.91915  0.93052  0.11017  Biso   1.000  He
  Ne110    1.0000 0.91169  0.92760  0.07974  Biso   1.000  Ne
  Ne111    1.0000 0.94032  0.27767  0.63061  Biso   1.000  Ne
  He111    1.0000 0.95178  0.30640  0.61974  Biso   1.000  He
  He112    1.0000 0.92957  0.31898  0.59808  Biso   1.000  He
  Ne112    1.0000 0.93778  0.34789  0.58232  Biso   1.000  Ne
  Ne113    1.0000 0.78193  0.04473  0.69346  Biso   1.000  Ne
  He113    1.0000 0.80813  0.02381  0.68815  Biso   1.000  He
  He114    1.0000 0.82739  0.01770  0.71547  Biso   1.000  He
  Ne114    1.0000 0.84859  0.99219  0.71483  Biso   1.000  Ne
  Ne115    1.0000 0.47391  0.01558  0.49371  Biso   1.000  Ne
  He115    1.0000 0.49005  0.01884  0.52195  Biso   1.000  He
  He116    1.0000 0.47261  0.01148  0.55063  Biso   1.000  He
  Ne116    1.0000 0.48971  0.00323  0.57987  Biso   1.000  Ne
  Ne117    1.0000 0.64725  0.68045  0.90929  Biso   1.000  Ne
  He117    1.0000 0.65696  0.65256  0.92588  Biso   1.000  He
  He118    1.0000 0.64164  0.62630  0.91746  Biso   1.000  He
  Ne118    1.0000 0.65686  0.59557  0.92848  Biso   1.000  Ne
  Ne119    1.0000 0.60041  0.53807  0.94588  Biso   1.000  Ne
  He119    1.0000 0.56956  0.53936  0.92909  Biso   1.000  He
  He120    1.0000 0.54175  0.53981  0.94994  Biso   1.000  He
  Ne120    1.0000 0.51461  0.55532  0.93652  Biso   1.000  Ne
  Ne121    1.0000 0.93134  0.04306  0.75400  Biso   1.000  Ne
  He121    1.0000 0.93965  0.05569  0.78177  Biso   1.000  He
  He122    1.0000 0.91843  0.05194  0.80524  Biso   1.000  He
  Ne122    1.0000 0.92804  0.06027  0.83634  Biso   1.000  Ne
  Ne123    1.0000 0.69209  0.39640  0.08933  Biso   1.000  Ne
  He123    1.0000 0.66813  0.37536  0.09957  Biso   1.000  He
  He124    1.0000 0.67831  0.34409  0.10161  Biso   1.000  He
  Ne124    1.0000 0.65763  0.32108  0.11115  Biso   1.000  Ne
  Ne125    1.0000 0.65758  0.21592  0.60618  Biso   1.000  Ne
  He125    1.0000 0.63214  0.19486  0.61891  Biso   1.000  He
  He126    1.0000 0.64286  0.16741  0.63269  Biso   1.000  He
  Ne126    1.0000 0.61777  0.15387  0.65343  Biso   1.000  Ne
  Ne127    1.0000 0.45243  0.56035  0.14149  Biso   1.000  Ne
  He127    1.0000 0.45070  0.56139  0.17575  Biso   1.000  He
  He128    1.0000 0.47333  0.58137  0.19268  Biso   1.000  He
  Ne128    1.0000 0.46178  0.61022  0.20260  Biso   1.000  Ne
  Ne129    1.0000 0.57661  0.95166  0.57258  Biso   1.000  Ne
  He129    1.0000 0.59212  0.94656  0.60187  Biso   1.000  He
  He130    1.0000 0.59882  0.91415  0.60552  Biso   1.000  He
  Ne130    1.0000 0.60868  0.90790  0.63909  Biso   1.000  Ne
  Ne131    1.0000 0.65198  0.07676  0.42815  Biso   1.000  Ne
  He131    1.0000 0.64802  0.10517  0.40907  Biso   1.000  He
  He132    1.0000 0.62754  0.10452  0.38280  Biso   1.000  He
  Ne132    1.0000 0.62486  0.12998  0.35975  Biso   1.000  Ne
  Ne133    1.0000 0.18590  0.92938  0.91548  Biso   1.000  Ne
  He133    1.0000 0.15247  0.92618  0.92170  Biso   1.000  He
  He134    1.0000 0.13334  0.94521  0.90033  Biso   1.000  He
  Ne134    1.0000 0.10183  0.94024  0.90179  Biso   1.000  Ne
  Ne135    1.0000 0.61844  0.35502  0.84604  Biso   1.000  Ne
  He135    1.0000 0.63227  0.38384  0.85169  Biso   1.000  He
  He136    1.0000 0.64302  0.40006  0.82493  Biso   1.000  He
  Ne136    1.0000 0.65065  0.43280  0.82864  Biso   1.000  Ne
  Ne137    1.0000 0.68404  0.63141  0.81825  Biso   1.000  Ne
  He137    1.0000 0.67717  0.66465  0.81634  Biso   1.000  He
  He138    1.0000 0.70150  0.68433  0.82662  Biso   1.000  He
  Ne138    1.0000 0.70260  0.71478  0.82228  Biso   1.000  Ne
  Ne139    1.0000 0.93413  0.08457  0.17583  Biso   1.000  Ne
  He139    1.0000 0.91144  0.10665  0.16901  Biso   1.000  He
  He140    1.0000 0.88061  0.09944  0.18253  Biso   1.000  He
  Ne140    1.0000 0.85502  0.11748  0.17201  Biso   1.000  Ne
  Ne141    1.0000 0.19682  0.17601  0.92913  Biso   1.000  Ne
  He141    1.0000 0.18152  0.14802  0.93671  Biso   1.000  He
  He142    1.0000 0.18056  0.12883  0.91236  Biso   1.000  He
  Ne142    1.0000 0.16789  0.10117  0.91607  Biso   1.000  Ne
  Ne143    1.0000 0.87433  0.86531  0.85300  Biso   1.000  Ne
  He143    1.0000 0.88877  0.87078  0.82347  Biso   1.000  He
  He144    1.0000 0.91194  0.89402  0.82636  Biso   1.000  He
  Ne144    1.0000 0.92633  0.89708  0.79619  Biso   1.000  Ne
  Ne145    1.0000 0.65717  0.59623  0.20826  Biso   1.000  Ne
  He145    1.0000 0.64172  0.58441  0.18195  Biso   1.000  He
  He146    1.0000 0.63775  0.60393  0.15581  Biso   1.000  He
  Ne146    1.0000 0.62008  0.59163  0.13186  Biso   1.000  Ne
  Ne147    1.0000 0.77032  0.57997  0.89431  Biso   1.000  Ne
  He147    1.0000 0.78811  0.56663  0.91617  Biso   1.000  He
  He148    1.0000 0.81820  0.58272  0.91550  Biso   1.000  He
  Ne148    1.0000 0.83449  0.57440  0.94547  Biso   1.000  Ne
  Ne149    1.0000 0.55328  0.40523  0.00980  Biso   1.000  Ne
  He149    1.0000 0.56383  0.42382  0.03581  Biso   1.000  He
  He150    1.0000 0.59296  0.41178  0.05000  Biso   1.000  He
  Ne150    1.0000 0.60223  0.43052  0.07791  Biso   1.000  Ne
  Ne151    1.0000 0.84369  0.86283  0.93896  Biso   1.000  Ne
  He151    1.0000 0.87456  0.85487  0.93476  Biso   1.000  He
  He152    1.0000 0.87831  0.82313  0.92811  Biso   1.000  He
  Ne152    1.0000 0.91019  0.81216  0.92425  Biso   1.000  Ne
  Ne153    1.0000 0.47576  0.46285  0.99552  Biso   1.000  Ne
  He153    1.0000 0.48971  0.46764  0.96577  Biso   1.000  He
  He154    1.0000 0.50672  0.44415  0.95173  Biso   1.000  He
  Ne154    1.0000 0.51510  0.44897  0.92150  Biso   1.000  Ne
  Ne155    1.0000 0.85823  0.10577  0.08806  Biso   1.000  Ne
  He155    1.0000 0.88746  0.10107  0.07339  Biso   1.000  He
  He156    1.0000 0.90916  0.08224  0.09237  Biso   1.000  He
  Ne156    1.0000 0.93899  0.07828  0.07880  Biso   1.000  Ne
  Ne157    1.0000 0.68800  0.87068  0.67445  Biso   1.000  Ne
  He157    1.0000 0.67525  0.86853  0.70588  Biso   1.000  He
  He158    1.0000 0.68223  0.89470  0.72489  Biso   1.000  He
  Ne158    1.0000 0.68064  0.89389  0.75889  Biso   1.000  Ne
  Ne159    1.0000 0.15134  0.59728  0.70215  Biso   1.000  Ne
  He159    1.0000 0.13435  0.62136  0.68257  Biso   1.000  He
  He160    1.0000 0.13128  0.65176  0.69612  Biso   1.000  He
  Ne160    1.0000 0.12233  0.67665  0.67525  Biso   1.000  Ne
