data_image0
_cell_length_a       47.3345
_cell_length_b       46.5705
_cell_length_c       46.524
_cell_angle_alpha    90
_cell_angle_beta     90
_cell_angle_gamma    90

_symmetry_space_group_name_H-M    "P 1"
_symmetry_int_tables_number       1

loop_
  _symmetry_equiv_pos_as_xyz
  'x, y, z'

loop_
  _atom_site_label
  _atom_site_occupancy
  _atom_site_fract_x
  _atom_site_fract_y
  _atom_site_fract_z
  _atom_site_thermal_displace_type
  _atom_site_B_iso_or_equiv
  _atom_site_type_symbol
  Ne1      1.0000 0.43342  0.86112  0.09340  Biso   1.000  Ne
  He1      1.0000 0.43162  0.83078  0.07865  Biso   1.000  He
  He2      1.0000 0.45420  0.81070  0.08735  Biso   1.000  He
  Ne2      1.0000 0.44715  0.77629  0.08494  Biso   1.000  Ne
  Ne3      1.0000 0.10785  0.06987  0.95209  Biso   1.000  Ne
  He3      1.0000 0.09373  0.09893  0.94127  Biso   1.000  He
  He4      1.0000 0.11410  0.12242  0.92471  Biso   1.000  He
  Ne4      1.0000 0.09576  0.15006  0.91609  Biso   1.000  Ne
  Ne5      1.0000 0.25942  0.12384  0.44868  Biso   1.000  Ne
  He5      1.0000 0.28624  0.10280  0.44915  Biso   1.000  He
  He6      1.0000 0.31245  0.11629  0.45822  Biso   1.000  He
  Ne6      1.0000 0.33893  0.09551  0.45227  Biso   1.000  Ne
  Ne7      1.0000 0.83310  0.10756  0.10022  Biso   1.000  Ne
  He7      1.0000 0.86136  0.09219  0.10872  Biso   1.000  He
  He8      1.0000 0.88481  0.11228  0.12058  Biso   1.000  He
  Ne8      1.0000 0.91636  0.09974  0.11922  Biso   1.000  Ne
  Ne9      1.0000 0.91019  0.80796  0.73585  Biso   1.000  Ne
  He9      1.0000 0.91648  0.84100  0.73523  Biso   1.000  He
  He10     1.0000 0.94637  0.85155  0.74562  Biso   1.000  He
  Ne10     1.0000 0.94759  0.88298  0.74226  Biso   1.000  Ne
  Ne11     1.0000 0.83746  0.58980  0.40992  Biso   1.000  Ne
  He11     1.0000 0.84776  0.61742  0.42094  Biso   1.000  He
  He12     1.0000 0.82273  0.63906  0.42323  Biso   1.000  He
  Ne12     1.0000 0.83022  0.67215  0.43227  Biso   1.000  Ne
  Ne13     1.0000 0.37431  0.42207  0.96059  Biso   1.000  Ne
  He13     1.0000 0.40291  0.43838  0.96756  Biso   1.000  He
  He14     1.0000 0.42585  0.41994  0.98593  Biso   1.000  He
  Ne14     1.0000 0.44972  0.40210  0.97017  Biso   1.000  Ne
  Ne15     1.0000 0.71699  0.92596  0.73674  Biso   1.000  Ne
  He15     1.0000 0.69872  0.93036  0.70999  Biso   1.000  He
  He16     1.0000 0.66908  0.94105  0.71671  Biso   1.000  He
  Ne16     1.0000 0.64621  0.93791  0.69410  Biso   1.000  Ne
  Ne17     1.0000 0.81220  0.63645  0.64828  Biso   1.000  Ne
  He17     1.0000 0.82387  0.62201  0.62115  Biso   1.000  He
  He18     1.0000 0.80495  0.59684  0.61067  Biso   1.000  He
  Ne18     1.0000 0.81799  0.57852  0.58377  Biso   1.000  Ne
  Ne19     1.0000 0.41048  0.12148  0.75323  Biso   1.000  Ne
  He19     1.0000 0.40840  0.14416  0.72822  Biso   1.000  He
  He20     1.0000 0.41645  0.13157  0.69691  Biso   1.000  He
  Ne20     1.0000 0.42024  0.15454  0.67511  Biso   1.000  Ne
  Ne21     1.0000 0.64920  0.62344  0.93062  Biso   1.000  Ne
  He21     1.0000 0.63107  0.63370  0.90339  Biso   1.000  He
  He22     1.0000 0.64192  0.65998  0.88608  Biso   1.000  He
  Ne22     1.0000 0.62262  0.66733  0.86230  Biso   1.000  Ne
  Ne23     1.0000 0.43909  0.07494  0.37943  Biso   1.000  Ne
  He23     1.0000 0.41171  0.06407  0.38909  Biso   1.000  He
  He24     1.0000 0.38613  0.07310  0.36930  Biso   1.000  He
  Ne24     1.0000 0.35827  0.05940  0.37533  Biso   1.000  Ne
  Ne25     1.0000 0.68304  0.85498  0.62339  Biso   1.000  Ne
  He25     1.0000 0.70369  0.88124  0.61990  Biso   1.000  He
  He26     1.0000 0.68819  0.91069  0.62311  Biso   1.000  He
  Ne26     1.0000 0.70798  0.93665  0.61784  Biso   1.000  Ne
  Ne27     1.0000 0.91853  0.64028  0.59448  Biso   1.000  Ne
  He27     1.0000 0.94805  0.62632  0.59757  Biso   1.000  He
  He28     1.0000 0.95469  0.60301  0.57265  Biso   1.000  He
  Ne28     1.0000 0.97283  0.57559  0.58101  Biso   1.000  Ne
  Ne29     1.0000 0.62933  0.26644  0.59794  Biso   1.000  Ne
  He29     1.0000 0.62767  0.23576  0.61151  Biso   1.000  He
  He30     1.0000 0.59799  0.22646  0.61852  Biso   1.000  He
  Ne30     1.0000 0.59777  0.19252  0.63217  Biso   1.000  Ne
  Ne31     1.0000 0.38671  0.32789  0.93354  Biso   1.000  Ne
  He31     1.0000 0.41118  0.31378  0.91662  Biso   1.000  He
  He32     1.0000 0.40180  0.29620  0.89098  Biso   1.000  He
  Ne32     1.0000 0.42754  0.28146  0.87363  Biso   1.000  Ne
  Ne33     1.0000 0.59083  0.41780  0.84248  Biso   1.000  Ne
  He33     1.0000 0.61796  0.41384  0.86536  Biso   1.000  He
  He34     1.0000 0.64638  0.41025  0.84957  Biso   1.000  He
  Ne34     1.0000 0.67232  0.40413  0.86805  Biso   1.000  Ne
  Ne35     1.0000 0.62130  0.83811  0.38567  Biso   1.000  Ne
  He35     1.0000 0.60538  0.85875  0.36301  Biso   1.000  He
  He36     1.0000 0.62362  0.86354  0.33433  Biso   1.000  He
  Ne36     1.0000 0.61166  0.88800  0.31322  Biso   1.000  Ne
  Ne37     1.0000 0.19474  0.23408  0.59161  Biso   1.000  Ne
  He37     1.0000 0.21537  0.20883  0.59518  Biso   1.000  He
  He38     1.0000 0.23142  0.21050  0.62408  Biso   1.000  He
  Ne38     1.0000 0.24903  0.18448  0.63071  Biso   1.000  Ne
  Ne39     1.0000 0.58828  0.29959  0.25154  Biso   1.000  Ne
  He39     1.0000 0.60581  0.29190  0.27558  Biso   1.000  He
  He40     1.0000 0.59425  0.30491  0.30536  Biso   1.000  He
  Ne40     1.0000 0.60822  0.29233  0.33468  Biso   1.000  Ne
  Ne41     1.0000 0.94124  0.25255  0.47456  Biso   1.000  Ne
  He41     1.0000 0.92568  0.26389  0.44867  Biso   1.000  He
  He42     1.0000 0.91567  0.29331  0.45330  Biso   1.000  He
  Ne42     1.0000 0.90429  0.30845  0.42535  Biso   1.000  Ne
  Ne43     1.0000 0.24243  0.70115  0.16622  Biso   1.000  Ne
  He43     1.0000 0.21541  0.70652  0.15118  Biso   1.000  He
  He44     1.0000 0.19896  0.73563  0.16029  Biso   1.000  He
  Ne44     1.0000 0.16925  0.74121  0.14519  Biso   1.000  Ne
  Ne45     1.0000 0.07572  0.38349  0.43468  Biso   1.000  Ne
  He45     1.0000 0.06661  0.41261  0.45477  Biso   1.000  He
  He46     1.0000 0.03240  0.41552  0.46394  Biso   1.000  He
  Ne46     1.0000 0.02740  0.43812  0.48744  Biso   1.000  Ne
  Ne47     1.0000 0.34639  0.37030  0.85596  Biso   1.000  Ne
  He47     1.0000 0.37800  0.37710  0.86487  Biso   1.000  He
  He48     1.0000 0.38125  0.40925  0.87381  Biso   1.000  He
  Ne48     1.0000 0.41273  0.41540  0.88504  Biso   1.000  Ne
  Ne49     1.0000 0.10783  0.41470  0.65611  Biso   1.000  Ne
  He49     1.0000 0.10740  0.40747  0.62176  Biso   1.000  He
  He50     1.0000 0.09459  0.43235  0.60380  Biso   1.000  He
  Ne50     1.0000 0.11171  0.44061  0.57584  Biso   1.000  Ne
  Ne51     1.0000 0.39180  0.38458  0.11893  Biso   1.000  Ne
  He51     1.0000 0.41765  0.36260  0.12206  Biso   1.000  He
  He52     1.0000 0.41067  0.33019  0.12410  Biso   1.000  He
  Ne52     1.0000 0.43817  0.30985  0.12728  Biso   1.000  Ne
  Ne53     1.0000 0.72262  0.01809  0.18485  Biso   1.000  Ne
  He53     1.0000 0.70181  0.99336  0.19047  Biso   1.000  He
  He54     1.0000 0.67656  0.00436  0.21155  Biso   1.000  He
  Ne54     1.0000 0.65489  0.98248  0.22154  Biso   1.000  Ne
  Ne55     1.0000 0.43888  0.19589  0.41105  Biso   1.000  Ne
  He55     1.0000 0.43247  0.16451  0.41490  Biso   1.000  He
  He56     1.0000 0.45192  0.14848  0.43817  Biso   1.000  He
  Ne56     1.0000 0.45025  0.11652  0.44463  Biso   1.000  Ne
  Ne57     1.0000 0.66511  0.56949  0.10021  Biso   1.000  Ne
  He57     1.0000 0.68934  0.55207  0.11458  Biso   1.000  He
  He58     1.0000 0.71670  0.57024  0.12582  Biso   1.000  He
  Ne58     1.0000 0.74115  0.57230  0.10171  Biso   1.000  Ne
  Ne59     1.0000 0.57604  0.56561  0.06704  Biso   1.000  Ne
  He59     1.0000 0.55007  0.56650  0.04884  Biso   1.000  He
  He60     1.0000 0.52236  0.56634  0.06725  Biso   1.000  He
  Ne60     1.0000 0.49530  0.56510  0.05210  Biso   1.000  Ne
  Ne61     1.0000 0.67092  0.34387  0.19999  Biso   1.000  Ne
  He61     1.0000 0.64573  0.36651  0.19349  Biso   1.000  He
  He62     1.0000 0.64969  0.39460  0.20918  Biso   1.000  He
  Ne62     1.0000 0.62117  0.40516  0.22143  Biso   1.000  Ne
  Ne63     1.0000 0.41422  0.52861  0.99383  Biso   1.000  Ne
  He63     1.0000 0.41862  0.55727  0.97623  Biso   1.000  He
  He64     1.0000 0.42704  0.58157  0.99296  Biso   1.000  He
  Ne64     1.0000 0.43213  0.60703  0.97398  Biso   1.000  Ne
  Ne65     1.0000 0.08970  0.26550  0.67446  Biso   1.000  Ne
  He65     1.0000 0.10004  0.26166  0.70670  Biso   1.000  He
  He66     1.0000 0.09819  0.28959  0.72436  Biso   1.000  He
  Ne66     1.0000 0.10614  0.28821  0.75863  Biso   1.000  Ne
  Ne67     1.0000 0.25862  0.55426  0.62564  Biso   1.000  Ne
  He67     1.0000 0.24907  0.56586  0.65628  Biso   1.000  He
  He68     1.0000 0.21456  0.56725  0.65783  Biso   1.000  He
  Ne68     1.0000 0.20409  0.58222  0.68656  Biso   1.000  Ne
  Ne69     1.0000 0.43085  0.02239  0.48898  Biso   1.000  Ne
  He69     1.0000 0.44956  0.03186  0.46237  Biso   1.000  He
  He70     1.0000 0.47483  0.01152  0.45787  Biso   1.000  He
  Ne70     1.0000 0.49240  0.02115  0.43324  Biso   1.000  Ne
  Ne71     1.0000 0.89188  0.57898  0.32184  Biso   1.000  Ne
  He71     1.0000 0.87925  0.60208  0.34350  Biso   1.000  He
  He72     1.0000 0.89678  0.63074  0.34447  Biso   1.000  He
  Ne72     1.0000 0.89117  0.65312  0.36878  Biso   1.000  Ne
  Ne73     1.0000 0.96071  0.93291  0.94757  Biso   1.000  Ne
  He73     1.0000 0.94051  0.94075  0.97115  Biso   1.000  He
  He74     1.0000 0.95759  0.96119  0.99016  Biso   1.000  He
  Ne74     1.0000 0.93857  0.97485  0.01567  Biso   1.000  Ne
  Ne75     1.0000 0.30679  0.33743  0.49722  Biso   1.000  Ne
  He75     1.0000 0.32145  0.35222  0.52519  Biso   1.000  He
  He76     1.0000 0.31049  0.34563  0.55621  Biso   1.000  He
  Ne76     1.0000 0.33296  0.35707  0.58044  Biso   1.000  Ne
  Ne77     1.0000 0.93617  0.67235  0.44414  Biso   1.000  Ne
  He77     1.0000 0.92829  0.64019  0.45020  Biso   1.000  He
  He78     1.0000 0.95003  0.61805  0.43533  Biso   1.000  He
  Ne78     1.0000 0.94601  0.58574  0.43754  Biso   1.000  Ne
  Ne79     1.0000 0.93093  0.00401  0.71454  Biso   1.000  Ne
  He79     1.0000 0.90554  0.02517  0.71696  Biso   1.000  He
  He80     1.0000 0.91254  0.05646  0.72440  Biso   1.000  He
  Ne80     1.0000 0.88429  0.07522  0.72820  Biso   1.000  Ne
  Ne81     1.0000 0.31171  0.28132  0.95116  Biso   1.000  Ne
  He81     1.0000 0.32049  0.25344  0.96804  Biso   1.000  He
  He82     1.0000 0.31139  0.22465  0.95538  Biso   1.000  He
  Ne82     1.0000 0.31856  0.19821  0.97725  Biso   1.000  Ne
  Ne83     1.0000 0.60088  0.49027  0.97566  Biso   1.000  Ne
  He83     1.0000 0.59427  0.51983  0.98770  Biso   1.000  He
  He84     1.0000 0.58913  0.54305  0.96548  Biso   1.000  He
  Ne84     1.0000 0.58609  0.57400  0.97576  Biso   1.000  Ne
  Ne85     1.0000 0.15586  0.25224  0.39892  Biso   1.000  Ne
  He85     1.0000 0.12948  0.27227  0.40703  Biso   1.000  He
  He86     1.0000 0.10007  0.25785  0.41078  Biso   1.000  He
  Ne86     1.0000 0.07606  0.27391  0.42816  Biso   1.000  Ne
  Ne87     1.0000 0.24476  0.83492  0.14092  Biso   1.000  Ne
  He87     1.0000 0.21598  0.85073  0.14569  Biso   1.000  He
  He88     1.0000 0.21798  0.88293  0.14898  Biso   1.000  He
  Ne88     1.0000 0.19272  0.89852  0.16032  Biso   1.000  Ne
  Ne89     1.0000 0.53569  0.00062  0.58910  Biso   1.000  Ne
  He89     1.0000 0.50952  0.99304  0.60803  Biso   1.000  He
  He90     1.0000 0.49070  0.96612  0.59727  Biso   1.000  He
  Ne90     1.0000 0.49082  0.94474  0.61991  Biso   1.000  Ne
  Ne91     1.0000 0.40265  0.05745  0.89501  Biso   1.000  Ne
  He91     1.0000 0.37337  0.05532  0.88116  Biso   1.000  He
  He92     1.0000 0.37357  0.04037  0.85068  Biso   1.000  He
  Ne92     1.0000 0.34441  0.04496  0.83567  Biso   1.000  Ne
  Ne93     1.0000 0.60492  0.68612  0.34257  Biso   1.000  Ne
  He93     1.0000 0.60646  0.67979  0.31035  Biso   1.000  He
  He94     1.0000 0.63040  0.69767  0.29398  Biso   1.000  He
  Ne94     1.0000 0.63510  0.69020  0.26278  Biso   1.000  Ne
  Ne95     1.0000 0.94315  0.87613  0.88091  Biso   1.000  Ne
  He95     1.0000 0.94009  0.85517  0.90765  Biso   1.000  He
  He96     1.0000 0.95355  0.82613  0.90182  Biso   1.000  He
  Ne96     1.0000 0.95345  0.80458  0.92790  Biso   1.000  Ne
  Ne97     1.0000 0.39261  0.85952  0.45606  Biso   1.000  Ne
  He97     1.0000 0.41236  0.83880  0.43904  Biso   1.000  He
  He98     1.0000 0.44302  0.83501  0.45256  Biso   1.000  He
  Ne98     1.0000 0.45904  0.81125  0.43634  Biso   1.000  Ne
  Ne99     1.0000 0.92407  0.85149  0.09997  Biso   1.000  Ne
  He99     1.0000 0.94639  0.86928  0.11708  Biso   1.000  He
  He100    1.0000 0.93591  0.87580  0.14828  Biso   1.000  He
  Ne100    1.0000 0.92345  0.90286  0.15496  Biso   1.000  Ne
  Ne101    1.0000 0.25822  0.40356  0.62003  Biso   1.000  Ne
  He101    1.0000 0.24337  0.38175  0.60481  Biso   1.000  He
  He102    1.0000 0.21231  0.38089  0.61581  Biso   1.000  He
  Ne102    1.0000 0.19408  0.35657  0.60210  Biso   1.000  Ne
  Ne103    1.0000 0.14050  0.89542  0.87302  Biso   1.000  Ne
  He103    1.0000 0.12430  0.86661  0.88316  Biso   1.000  He
  He104    1.0000 0.10918  0.84931  0.85845  Biso   1.000  He
  Ne104    1.0000 0.12647  0.82080  0.84601  Biso   1.000  Ne
  Ne105    1.0000 0.45390  0.84017  0.60510  Biso   1.000  Ne
  He105    1.0000 0.44098  0.86838  0.61785  Biso   1.000  He
  He106    1.0000 0.42378  0.88840  0.59557  Biso   1.000  He
  Ne106    1.0000 0.41181  0.91879  0.60590  Biso   1.000  Ne
  Ne107    1.0000 0.92999  0.38384  0.44754  Biso   1.000  Ne
  He107    1.0000 0.93810  0.41727  0.44354  Biso   1.000  He
  He108    1.0000 0.95709  0.42647  0.41669  Biso   1.000  He
  Ne108    1.0000 0.95772  0.46071  0.41156  Biso   1.000  Ne
  Ne109    1.0000 0.10163  0.33153  0.59794  Biso   1.000  Ne
  He109    1.0000 0.09087  0.30148  0.59023  Biso   1.000  He
  He110    1.0000 0.10873  0.27568  0.60250  Biso   1.000  He
  Ne110    1.0000 0.10163  0.24497  0.58788  Biso   1.000  Ne
  Ne111    1.0000 0.81453  0.41883  0.61702  Biso   1.000  Ne
  He111    1.0000 0.83530  0.39407  0.60524  Biso   1.000  He
  He112    1.0000 0.86728  0.40158  0.61237  Biso   1.000  He
  Ne112    1.0000 0.88852  0.37999  0.59708  Biso   1.000  Ne
  Ne113    1.0000 0.64304  0.13615  0.61108  Biso   1.000  Ne
  He113    1.0000 0.66695  0.10984  0.61625  Biso   1.000  He
  He114    1.0000 0.67171  0.09983  0.64805  Biso   1.000  He
  Ne114    1.0000 0.70239  0.10197  0.65984  Biso   1.000  Ne
  Ne115    1.0000 0.45479  0.75396  0.72312  Biso   1.000  Ne
  He115    1.0000 0.45921  0.74960  0.68924  Biso   1.000  He
  He116    1.0000 0.45885  0.77785  0.67424  Biso   1.000  He
  Ne116    1.0000 0.45549  0.77311  0.64215  Biso   1.000  Ne
  Ne117    1.0000 0.63597  0.11648  0.75838  Biso   1.000  Ne
  He117    1.0000 0.62080  0.11177  0.73001  Biso   1.000  He
  He118    1.0000 0.61048  0.13928  0.71283  Biso   1.000  He
  Ne118    1.0000 0.59385  0.13178  0.68795  Biso   1.000  Ne
  Ne119    1.0000 0.35279  0.53468  0.47045  Biso   1.000  Ne
  He119    1.0000 0.34174  0.55953  0.48711  Biso   1.000  He
  He120    1.0000 0.31253  0.57053  0.47381  Biso   1.000  He
  Ne120    1.0000 0.30544  0.60276  0.47838  Biso   1.000  Ne
  Ne121    1.0000 0.37902  0.07110  0.66517  Biso   1.000  Ne
  He121    1.0000 0.38143  0.08584  0.63522  Biso   1.000  He
  He122    1.0000 0.35676  0.10963  0.63215  Biso   1.000  He
  Ne122    1.0000 0.35582  0.12212  0.60160  Biso   1.000  Ne
  Ne123    1.0000 0.48907  0.50338  0.94463  Biso   1.000  Ne
  He123    1.0000 0.50400  0.50735  0.97484  Biso   1.000  He
  He124    1.0000 0.49748  0.48000  0.99328  Biso   1.000  He
  Ne124    1.0000 0.50739  0.48324  0.02481  Biso   1.000  Ne
  Ne125    1.0000 0.23468  0.39511  0.44126  Biso   1.000  Ne
  He125    1.0000 0.20556  0.40485  0.42547  Biso   1.000  He
  He126    1.0000 0.17769  0.39778  0.44431  Biso   1.000  He
  Ne126    1.0000 0.15795  0.37373  0.42867  Biso   1.000  Ne
  Ne127    1.0000 0.78257  0.06075  0.44103  Biso   1.000  Ne
  He127    1.0000 0.76052  0.07779  0.42088  Biso   1.000  He
  He128    1.0000 0.73001  0.07077  0.43185  Biso   1.000  He
  Ne128    1.0000 0.70478  0.08805  0.41550  Biso   1.000  Ne
  Ne129    1.0000 0.10501  0.06821  0.80873  Biso   1.000  Ne
  He129    1.0000 0.12523  0.07878  0.83109  Biso   1.000  He
  He130    1.0000 0.14971  0.05415  0.83979  Biso   1.000  He
  Ne130    1.0000 0.17445  0.06251  0.85944  Biso   1.000  Ne
  Ne131    1.0000 0.09550  0.06562  0.05161  Biso   1.000  Ne
  He131    1.0000 0.10132  0.07770  0.08308  Biso   1.000  He
  He132    1.0000 0.07531  0.07637  0.10151  Biso   1.000  He
  Ne132    1.0000 0.07827  0.08189  0.13353  Biso   1.000  Ne
  Ne133    1.0000 0.05834  0.99959  0.96380  Biso   1.000  Ne
  He133    1.0000 0.06948  0.97018  0.96329  Biso   1.000  He
  He134    1.0000 0.07089  0.95012  0.93513  Biso   1.000  He
  Ne134    1.0000 0.08535  0.92017  0.93785  Biso   1.000  Ne
  Ne135    1.0000 0.94476  0.24314  0.32440  Biso   1.000  Ne
  He135    1.0000 0.94539  0.26779  0.30319  Biso   1.000  He
  He136    1.0000 0.91994  0.26593  0.28253  Biso   1.000  He
  Ne136    1.0000 0.92536  0.27947  0.25409  Biso   1.000  Ne
  Ne137    1.0000 0.14834  0.57495  0.62663  Biso   1.000  Ne
  He137    1.0000 0.15041  0.60350  0.60641  Biso   1.000  He
  He138    1.0000 0.14672  0.63384  0.62124  Biso   1.000  He
  Ne138    1.0000 0.17683  0.64781  0.63500  Biso   1.000  Ne
  Ne139    1.0000 0.78839  0.36316  0.23928  Biso   1.000  Ne
  He139    1.0000 0.79171  0.34470  0.21160  Biso   1.000  He
  He140    1.0000 0.82402  0.33249  0.20948  Biso   1.000  He
  Ne140    1.0000 0.83153  0.31318  0.18410  Biso   1.000  Ne
  Ne141    1.0000 0.83843  0.91248  0.14815  Biso   1.000  Ne
  He141    1.0000 0.82089  0.88841  0.13463  Biso   1.000  He
  He142    1.0000 0.81815  0.89317  0.10182  Biso   1.000  He
  Ne142    1.0000 0.79828  0.86841  0.08672  Biso   1.000  Ne
  Ne143    1.0000 0.22118  0.11898  0.51702  Biso   1.000  Ne
  He143    1.0000 0.20835  0.08797  0.51830  Biso   1.000  He
  He144    1.0000 0.19479  0.07455  0.49070  Biso   1.000  He
  Ne144    1.0000 0.21172  0.05248  0.47272  Biso   1.000  Ne
  Ne145    1.0000 0.93162  0.04031  0.95291  Biso   1.000  Ne
  He145    1.0000 0.90050  0.04840  0.94829  Biso   1.000  He
  He146    1.0000 0.89441  0.07844  0.94110  Biso   1.000  He
  Ne146    1.0000 0.86244  0.08990  0.94269  Biso   1.000  Ne
  Ne147    1.0000 0.66697  0.58565  0.80187  Biso   1.000  Ne
  He147    1.0000 0.64014  0.57744  0.81757  Biso   1.000  He
  He148    1.0000 0.64639  0.56865  0.85089  Biso   1.000  He
  Ne148    1.0000 0.61799  0.56599  0.86684  Biso   1.000  Ne
  Ne149    1.0000 0.89883  0.60639  0.70693  Biso   1.000  Ne
  He149    1.0000 0.90731  0.59189  0.67845  Biso   1.000  He
  He150    1.0000 0.89409  0.56112  0.67244  Biso   1.000  He
  Ne150    1.0000 0.90556  0.55006  0.64579  Biso   1.000  Ne
  Ne151    1.0000 0.60164  0.03877  0.51412  Biso   1.000  Ne
  He151    1.0000 0.58289  0.04714  0.54106  Biso   1.000  He
  He152    1.0000 0.60266  0.05066  0.56710  Biso   1.000  He
  Ne152    1.0000 0.58501  0.05916  0.59347  Biso   1.000  Ne
  Ne153    1.0000 0.42821  0.58858  0.12301  Biso   1.000  Ne
  He153    1.0000 0.39634  0.59658  0.13281  Biso   1.000  He
  He154    1.0000 0.37242  0.57509  0.13287  Biso   1.000  He
  Ne154    1.0000 0.34357  0.58751  0.14444  Biso   1.000  Ne
  Ne155    1.0000 0.58937  0.09952  0.46011  Biso   1.000  Ne
  He155    1.0000 0.58603  0.07787  0.43364  Biso   1.000  He
  He156    1.0000 0.60720  0.07907  0.41154  Biso   1.000  He
  Ne156    1.0000 0.60110  0.06116  0.38631  Biso   1.000  Ne
  Ne157    1.0000 0.11380  0.89528  0.14498  Biso   1.000  Ne
  He157    1.0000 0.10415  0.86528  0.13748  Biso   1.000  He
  He158    1.0000 0.13021  0.84214  0.13508  Biso   1.000  He
  Ne158    1.0000 0.11564  0.81180  0.12730  Biso   1.000  Ne
  Ne159    1.0000 0.39879  0.38263  0.26065  Biso   1.000  Ne
  He159    1.0000 0.40389  0.40155  0.23431  Biso   1.000  He
  He160    1.0000 0.43086  0.39201  0.21757  Biso   1.000  He
  Ne160    1.0000 0.43631  0.41311  0.19013  Biso   1.000  Ne
  Ne161    1.0000 0.73380  0.40684  0.17236  Biso   1.000  Ne
  He161    1.0000 0.73605  0.39833  0.14065  Biso   1.000  He
  He162    1.0000 0.70740  0.39657  0.12315  Biso   1.000  He
  Ne162    1.0000 0.70808  0.38263  0.09507  Biso   1.000  Ne
  Ne163    1.0000 0.97641  0.43344  0.61528  Biso   1.000  Ne
  He163    1.0000 0.95252  0.42954  0.59286  Biso   1.000  He
  He164    1.0000 0.93457  0.45557  0.58579  Biso   1.000  He
  Ne164    1.0000 0.91622  0.45098  0.55989  Biso   1.000  Ne
  Ne165    1.0000 0.94716  0.73466  0.61956  Biso   1.000  Ne
  He165    1.0000 0.95686  0.72174  0.64812  Biso   1.000  He
  He166    1.0000 0.93197  0.69995  0.65756  Biso   1.000  He
  Ne166    1.0000 0.93694  0.68846  0.68685  Biso   1.000  Ne
  Ne167    1.0000 0.93952  0.11994  0.87357  Biso   1.000  Ne
  He167    1.0000 0.94093  0.08734  0.86951  Biso   1.000  He
  He168    1.0000 0.92066  0.07577  0.84620  Biso   1.000  He
  Ne168    1.0000 0.93479  0.07548  0.81730  Biso   1.000  Ne
  Ne169    1.0000 0.14526  0.58772  0.75820  Biso   1.000  Ne
  He169    1.0000 0.12702  0.58018  0.73093  Biso   1.000  He
  He170    1.0000 0.11221  0.60550  0.71582  Biso   1.000  He
  Ne170    1.0000 0.09453  0.59431  0.68922  Biso   1.000  Ne
  Ne171    1.0000 0.14787  0.57495  0.43962  Biso   1.000  Ne
  He171    1.0000 0.17766  0.59035  0.44521  Biso   1.000  He
  He172    1.0000 0.20260  0.57135  0.43940  Biso   1.000  He
  Ne172    1.0000 0.22895  0.58801  0.44989  Biso   1.000  Ne
  Ne173    1.0000 0.11846  0.41948  0.36994  Biso   1.000  Ne
  He173    1.0000 0.14442  0.40740  0.35707  Biso   1.000  He
  He174    1.0000 0.14079  0.39743  0.32697  Biso   1.000  He
  Ne174    1.0000 0.16949  0.38475  0.31251  Biso   1.000  Ne
  Ne175    1.0000 0.48439  0.91836  0.46397  Biso   1.000  Ne
  He175    1.0000 0.47712  0.90442  0.43542  Biso   1.000  He
  He176    1.0000 0.44690  0.91650  0.42026  Biso   1.000  He
  Ne176    1.0000 0.44343  0.90558  0.38868  Biso   1.000  Ne
  Ne177    1.0000 0.74303  0.64587  0.92552  Biso   1.000  Ne
  He177    1.0000 0.77148  0.62538  0.92613  Biso   1.000  He
  He178    1.0000 0.79136  0.62639  0.95363  Biso   1.000  He
  Ne178    1.0000 0.81564  0.60009  0.95186  Biso   1.000  Ne
  Ne179    1.0000 0.12257  0.18683  0.10425  Biso   1.000  Ne
  He179    1.0000 0.11317  0.17117  0.13112  Biso   1.000  He
  He180    1.0000 0.11913  0.18805  0.16157  Biso   1.000  He
  Ne180    1.0000 0.11377  0.16889  0.18857  Biso   1.000  Ne
  Ne181    1.0000 0.61932  0.57613  0.17965  Biso   1.000  Ne
  He181    1.0000 0.64064  0.59956  0.18414  Biso   1.000  He
  He182    1.0000 0.65089  0.60466  0.21470  Biso   1.000  He
  Ne182    1.0000 0.67527  0.62900  0.21809  Biso   1.000  Ne
  Ne183    1.0000 0.21700  0.08002  0.10290  Biso   1.000  Ne
  He183    1.0000 0.18943  0.07933  0.12404  Biso   1.000  He
  He184    1.0000 0.19975  0.08935  0.15639  Biso   1.000  He
  Ne184    1.0000 0.17740  0.08550  0.17703  Biso   1.000  Ne
  Ne185    1.0000 0.10871  0.92001  0.22706  Biso   1.000  Ne
  He185    1.0000 0.09048  0.89374  0.22396  Biso   1.000  He
  He186    1.0000 0.10435  0.86449  0.23236  Biso   1.000  He
  Ne186    1.0000 0.08649  0.83817  0.22783  Biso   1.000  Ne
  Ne187    1.0000 0.59517  0.29896  0.16542  Biso   1.000  Ne
  He187    1.0000 0.59678  0.29580  0.12894  Biso   1.000  He
  He188    1.0000 0.61802  0.31466  0.10977  Biso   1.000  He
  Ne188    1.0000 0.60705  0.34471  0.09800  Biso   1.000  Ne
  Ne189    1.0000 0.18704  0.91226  0.96215  Biso   1.000  Ne
  He189    1.0000 0.17216  0.88415  0.97027  Biso   1.000  He
  He190    1.0000 0.18916  0.85629  0.96155  Biso   1.000  He
  Ne190    1.0000 0.17238  0.83100  0.97455  Biso   1.000  Ne
  Ne191    1.0000 0.62893  0.05029  0.27588  Biso   1.000  Ne
  He191    1.0000 0.60804  0.07432  0.28638  Biso   1.000  He
  He192    1.0000 0.61333  0.08963  0.31720  Biso   1.000  He
  Ne192    1.0000 0.59624  0.11920  0.32630  Biso   1.000  Ne
  Ne193    1.0000 0.25327  0.38907  0.98508  Biso   1.000  Ne
  He193    1.0000 0.27444  0.36663  0.97203  Biso   1.000  He
  He194    1.0000 0.29949  0.37892  0.95037  Biso   1.000  He
  Ne194    1.0000 0.29357  0.38483  0.91956  Biso   1.000  Ne
  Ne195    1.0000 0.46633  0.41367  0.08667  Biso   1.000  Ne
  He195    1.0000 0.45362  0.43860  0.06742  Biso   1.000  He
  He196    1.0000 0.44811  0.46485  0.08320  Biso   1.000  He
  Ne196    1.0000 0.44142  0.49359  0.06321  Biso   1.000  Ne
  Ne197    1.0000 0.08342  0.71356  0.93402  Biso   1.000  Ne
  He197    1.0000 0.09958  0.73982  0.92453  Biso   1.000  He
  He198    1.0000 0.11779  0.75476  0.94693  Biso   1.000  He
  Ne198    1.0000 0.13387  0.78305  0.93564  Biso   1.000  Ne
  Ne199    1.0000 0.44315  0.02637  0.56836  Biso   1.000  Ne
  He199    1.0000 0.46224  0.05449  0.56933  Biso   1.000  He
  He200    1.0000 0.48449  0.05368  0.54304  Biso   1.000  He
  Ne200    1.0000 0.50247  0.08138  0.54138  Biso   1.000  Ne
  Ne201    1.0000 0.93425  0.42596  0.33024  Biso   1.000  Ne
  He201    1.0000 0.90468  0.41040  0.33797  Biso   1.000  He
  He202    1.0000 0.88546  0.41446  0.31221  Biso   1.000  He
  Ne202    1.0000 0.85378  0.40388  0.32027  Biso   1.000  Ne
  Ne203    1.0000 0.45433  0.60092  0.23232  Biso   1.000  Ne
  He203    1.0000 0.43056  0.58823  0.25111  Biso   1.000  He
  He204    1.0000 0.44153  0.57357  0.27638  Biso   1.000  He
  Ne204    1.0000 0.42075  0.56449  0.29916  Biso   1.000  Ne
  Ne205    1.0000 0.64542  0.93362  0.46136  Biso   1.000  Ne
  He205    1.0000 0.62200  0.91361  0.44996  Biso   1.000  He
  He206    1.0000 0.62125  0.88365  0.46263  Biso   1.000  He
  Ne206    1.0000 0.59292  0.87004  0.45560  Biso   1.000  Ne
  Ne207    1.0000 0.22740  0.83387  0.23314  Biso   1.000  Ne
  He207    1.0000 0.21036  0.85744  0.25056  Biso   1.000  He
  He208    1.0000 0.19668  0.84407  0.27737  Biso   1.000  He
  Ne208    1.0000 0.18274  0.86236  0.29820  Biso   1.000  Ne
  Ne209    1.0000 0.00664  0.04919  0.08321  Biso   1.000  Ne
  He209    1.0000 0.01079  0.06406  0.05513  Biso   1.000  He
  He210    1.0000 0.99809  0.04992  0.02892  Biso   1.000  He
  Ne210    1.0000 0.99542  0.06933  0.00186  Biso   1.000  Ne
  Ne211    1.0000 0.81436  0.82817  0.88697  Biso   1.000  Ne
  He211    1.0000 0.82874  0.85613  0.90291  Biso   1.000  He
  He212    1.0000 0.85598  0.86716  0.88832  Biso   1.000  He
  Ne212    1.0000 0.86380  0.89667  0.90520  Biso   1.000  Ne
  Ne213    1.0000 0.12103  0.68202  0.33386  Biso   1.000  Ne
  He213    1.0000 0.12194  0.65400  0.35369  Biso   1.000  He
  He214    1.0000 0.13322  0.62518  0.33570  Biso   1.000  He
  Ne214    1.0000 0.13529  0.59720  0.35546  Biso   1.000  Ne
  Ne215    1.0000 0.37801  0.71580  0.14185  Biso   1.000  Ne
  He215    1.0000 0.40942  0.71947  0.13435  Biso   1.000  He
  He216    1.0000 0.43021  0.71590  0.16042  Biso   1.000  He
  Ne216    1.0000 0.46344  0.71296  0.15009  Biso   1.000  Ne
  Ne217    1.0000 0.58850  0.90164  0.60474  Biso   1.000  Ne
  He217    1.0000 0.59688  0.93334  0.60427  Biso   1.000  He
  He218    1.0000 0.61446  0.94307  0.57986  Biso   1.000  He
  Ne218    1.0000 0.62073  0.97603  0.58384  Biso   1.000  Ne
  Ne219    1.0000 0.62012  0.39041  0.94169  Biso   1.000  Ne
  He219    1.0000 0.59298  0.40524  0.95490  Biso   1.000  He
  He220    1.0000 0.56449  0.38903  0.94688  Biso   1.000  He
  Ne220    1.0000 0.53942  0.41100  0.95251  Biso   1.000  Ne
  Ne221    1.0000 0.00360  0.50405  0.55714  Biso   1.000  Ne
  He221    1.0000 0.02800  0.49681  0.57918  Biso   1.000  He
  He222    1.0000 0.04169  0.52466  0.59194  Biso   1.000  He
  Ne222    1.0000 0.06676  0.51959  0.61098  Biso   1.000  Ne
  Ne223    1.0000 0.80744  0.92219  0.74232  Biso   1.000  Ne
  He223    1.0000 0.82399  0.90991  0.76917  Biso   1.000  He
  He224    1.0000 0.80240  0.90191  0.79465  Biso   1.000  He
  Ne224    1.0000 0.81495  0.87817  0.81503  Biso   1.000  Ne
  Ne225    1.0000 0.59247  0.26757  0.94433  Biso   1.000  Ne
  He225    1.0000 0.58918  0.29962  0.93304  Biso   1.000  He
  He226    1.0000 0.58245  0.30670  0.90216  Biso   1.000  He
  Ne226    1.0000 0.58799  0.33851  0.89237  Biso   1.000  Ne
  Ne227    1.0000 0.27646  0.38178  0.76038  Biso   1.000  Ne
  He227    1.0000 0.28508  0.39218  0.79268  Biso   1.000  He
  He228    1.0000 0.30392  0.41796  0.78836  Biso   1.000  He
  Ne228    1.0000 0.31231  0.43075  0.81725  Biso   1.000  Ne
  Ne229    1.0000 0.98786  0.92165  0.07748  Biso   1.000  Ne
  He229    1.0000 0.01870  0.91664  0.06689  Biso   1.000  He
  He230    1.0000 0.03578  0.94398  0.06430  Biso   1.000  He
  Ne230    1.0000 0.05443  0.95360  0.09132  Biso   1.000  Ne
  Ne231    1.0000 0.91765  0.24170  0.59634  Biso   1.000  Ne
  He231    1.0000 0.91290  0.27090  0.61250  Biso   1.000  He
  He232    1.0000 0.93645  0.27473  0.63738  Biso   1.000  He
  Ne232    1.0000 0.93382  0.30261  0.65600  Biso   1.000  Ne
  Ne233    1.0000 0.61970  0.65335  0.11723  Biso   1.000  Ne
  He233    1.0000 0.65139  0.66473  0.12022  Biso   1.000  He
  He234    1.0000 0.67388  0.65252  0.09799  Biso   1.000  He
  Ne234    1.0000 0.70193  0.67161  0.09911  Biso   1.000  Ne
  Ne235    1.0000 0.03876  0.55787  0.48043  Biso   1.000  Ne
  He235    1.0000 0.05835  0.53059  0.48843  Biso   1.000  He
  He236    1.0000 0.08664  0.53984  0.50277  Biso   1.000  He
  Ne236    1.0000 0.10998  0.51815  0.51044  Biso   1.000  Ne
  Ne237    1.0000 0.84070  0.40308  0.42423  Biso   1.000  Ne
  He237    1.0000 0.81382  0.38241  0.42559  Biso   1.000  He
  He238    1.0000 0.78318  0.40115  0.42626  Biso   1.000  He
  Ne238    1.0000 0.75541  0.38156  0.43130  Biso   1.000  Ne
  Ne239    1.0000 0.62055  0.44332  0.04337  Biso   1.000  Ne
  He239    1.0000 0.59822  0.45882  0.06253  Biso   1.000  He
  He240    1.0000 0.57841  0.43973  0.08098  Biso   1.000  He
  Ne240    1.0000 0.55633  0.45579  0.09848  Biso   1.000  Ne
