data_image0
_cell_length_a       47.1646
_cell_length_b       46.6493
_cell_length_c       46.5643
_cell_angle_alpha    90
_cell_angle_beta     90
_cell_angle_gamma    90

_symmetry_space_group_name_H-M    "P 1"
_symmetry_int_tables_number       1

loop_
  _symmetry_equiv_pos_as_xyz
  'x, y, z'

loop_
  _atom_site_label
  _atom_site_occupancy
  _atom_site_fract_x
  _atom_site_fract_y
  _atom_site_fract_z
  _atom_site_thermal_displace_type
  _atom_site_B_iso_or_equiv
  _atom_site_type_symbol
  Ne1      1.0000 0.57870  0.54951  0.14763  Biso   1.000  Ne
  He1      1.0000 0.60176  0.53968  0.12688  Biso   1.000  He
  He2      1.0000 0.63228  0.55302  0.12950  Biso   1.000  He
  Ne2      1.0000 0.65526  0.53893  0.10792  Biso   1.000  Ne
  Ne3      1.0000 0.44189  0.50119  0.32579  Biso   1.000  Ne
  He3      1.0000 0.43783  0.52748  0.30867  Biso   1.000  He
  He4      1.0000 0.43353  0.52257  0.27569  Biso   1.000  He
  Ne4      1.0000 0.43011  0.55136  0.25965  Biso   1.000  Ne
  Ne5      1.0000 0.60877  0.20585  0.86686  Biso   1.000  Ne
  He5      1.0000 0.62255  0.23464  0.87277  Biso   1.000  He
  He6      1.0000 0.60688  0.25423  0.89450  Biso   1.000  He
  Ne6      1.0000 0.61872  0.28463  0.89241  Biso   1.000  Ne
  Ne7      1.0000 0.87829  0.57267  0.36242  Biso   1.000  Ne
  He7      1.0000 0.84735  0.56471  0.35750  Biso   1.000  He
  He8      1.0000 0.83742  0.55509  0.32677  Biso   1.000  He
  Ne8      1.0000 0.80381  0.54943  0.32508  Biso   1.000  Ne
  Ne9      1.0000 0.41299  0.88668  0.36477  Biso   1.000  Ne
  He9      1.0000 0.43358  0.86792  0.38019  Biso   1.000  He
  He10     1.0000 0.43914  0.87386  0.41293  Biso   1.000  He
  Ne10     1.0000 0.46100  0.85349  0.42550  Biso   1.000  Ne
  Ne11     1.0000 0.87466  0.13034  0.92341  Biso   1.000  Ne
  He11     1.0000 0.90366  0.14459  0.93040  Biso   1.000  He
  He12     1.0000 0.92048  0.15905  0.90515  Biso   1.000  He
  Ne12     1.0000 0.94898  0.17137  0.91473  Biso   1.000  Ne
  Ne13     1.0000 0.86212  0.25928  0.63350  Biso   1.000  Ne
  He13     1.0000 0.83371  0.24776  0.63602  Biso   1.000  He
  He14     1.0000 0.81295  0.27220  0.64461  Biso   1.000  He
  Ne14     1.0000 0.77947  0.26274  0.64478  Biso   1.000  Ne
  Ne15     1.0000 0.89717  0.58401  0.44234  Biso   1.000  Ne
  He15     1.0000 0.89032  0.61715  0.44424  Biso   1.000  He
  He16     1.0000 0.91838  0.63496  0.44254  Biso   1.000  He
  Ne16     1.0000 0.91323  0.66774  0.43909  Biso   1.000  Ne
  Ne17     1.0000 0.08582  0.27861  0.62135  Biso   1.000  Ne
  He17     1.0000 0.11174  0.28591  0.64027  Biso   1.000  He
  He18     1.0000 0.14028  0.27930  0.62394  Biso   1.000  He
  Ne18     1.0000 0.16710  0.28189  0.64351  Biso   1.000  Ne
  Ne19     1.0000 0.16376  0.37536  0.61237  Biso   1.000  Ne
  He19     1.0000 0.13742  0.38301  0.59268  Biso   1.000  He
  He20     1.0000 0.11330  0.40121  0.60821  Biso   1.000  He
  Ne20     1.0000 0.08615  0.40370  0.58870  Biso   1.000  Ne
  Ne21     1.0000 0.56177  0.04004  0.47768  Biso   1.000  Ne
  He21     1.0000 0.58603  0.06110  0.46676  Biso   1.000  He
  He22     1.0000 0.57346  0.09188  0.46867  Biso   1.000  He
  Ne22     1.0000 0.59530  0.11751  0.46899  Biso   1.000  Ne
  Ne23     1.0000 0.10749  0.66580  0.60460  Biso   1.000  Ne
  He23     1.0000 0.12683  0.64006  0.59737  Biso   1.000  He
  He24     1.0000 0.11254  0.61088  0.60836  Biso   1.000  He
  Ne24     1.0000 0.13073  0.58259  0.59791  Biso   1.000  Ne
  Ne25     1.0000 0.09623  0.15153  0.10204  Biso   1.000  Ne
  He25     1.0000 0.11091  0.12034  0.10693  Biso   1.000  He
  He26     1.0000 0.09033  0.09472  0.10583  Biso   1.000  He
  Ne26     1.0000 0.10358  0.06915  0.11736  Biso   1.000  Ne
  Ne27     1.0000 0.45708  0.32968  0.96117  Biso   1.000  Ne
  He27     1.0000 0.42932  0.31830  0.95053  Biso   1.000  He
  He28     1.0000 0.42416  0.28869  0.96248  Biso   1.000  He
  Ne28     1.0000 0.39630  0.27068  0.95281  Biso   1.000  Ne
  Ne29     1.0000 0.77812  0.87306  0.93975  Biso   1.000  Ne
  He29     1.0000 0.80709  0.85876  0.94178  Biso   1.000  He
  He30     1.0000 0.83317  0.87655  0.95498  Biso   1.000  He
  Ne30     1.0000 0.86452  0.86304  0.95883  Biso   1.000  Ne
  Ne31     1.0000 0.26668  0.37276  0.96483  Biso   1.000  Ne
  He31     1.0000 0.27976  0.35812  0.93804  Biso   1.000  He
  He32     1.0000 0.31188  0.35246  0.93956  Biso   1.000  He
  Ne32     1.0000 0.32659  0.34226  0.91177  Biso   1.000  Ne
  Ne33     1.0000 0.08646  0.88892  0.13409  Biso   1.000  Ne
  He33     1.0000 0.10885  0.86883  0.14340  Biso   1.000  He
  He34     1.0000 0.09469  0.84383  0.15707  Biso   1.000  He
  Ne34     1.0000 0.11492  0.81756  0.16534  Biso   1.000  Ne
  Ne35     1.0000 0.09435  0.06895  0.85650  Biso   1.000  Ne
  He35     1.0000 0.09812  0.07353  0.89135  Biso   1.000  He
  He36     1.0000 0.10426  0.10535  0.90048  Biso   1.000  He
  Ne36     1.0000 0.10758  0.11019  0.93167  Biso   1.000  Ne
  Ne37     1.0000 0.77248  0.34669  0.93776  Biso   1.000  Ne
  He37     1.0000 0.74383  0.32717  0.93796  Biso   1.000  He
  He38     1.0000 0.71481  0.34536  0.94486  Biso   1.000  He
  Ne38     1.0000 0.68965  0.32670  0.93934  Biso   1.000  Ne
  Ne39     1.0000 0.36151  0.53174  0.07776  Biso   1.000  Ne
  He39     1.0000 0.34237  0.55314  0.09653  Biso   1.000  He
  He40     1.0000 0.31139  0.55267  0.08936  Biso   1.000  He
  Ne40     1.0000 0.29314  0.53437  0.11004  Biso   1.000  Ne
  Ne41     1.0000 0.67057  0.04076  0.40218  Biso   1.000  Ne
  He41     1.0000 0.63709  0.03433  0.40325  Biso   1.000  He
  He42     1.0000 0.62434  0.02894  0.37524  Biso   1.000  He
  Ne42     1.0000 0.59053  0.02252  0.37906  Biso   1.000  Ne
  Ne43     1.0000 0.41687  0.37656  0.15002  Biso   1.000  Ne
  He43     1.0000 0.42005  0.35128  0.12659  Biso   1.000  He
  He44     1.0000 0.42970  0.32215  0.13791  Biso   1.000  He
  Ne44     1.0000 0.43423  0.30027  0.11645  Biso   1.000  Ne
  Ne45     1.0000 0.36771  0.08240  0.46633  Biso   1.000  Ne
  He45     1.0000 0.34379  0.08039  0.44711  Biso   1.000  He
  He46     1.0000 0.31987  0.06038  0.45986  Biso   1.000  He
  Ne46     1.0000 0.29100  0.05894  0.44495  Biso   1.000  Ne
  Ne47     1.0000 0.89795  0.05398  0.92620  Biso   1.000  Ne
  He47     1.0000 0.91922  0.03048  0.91796  Biso   1.000  He
  He48     1.0000 0.94647  0.02959  0.93782  Biso   1.000  He
  Ne48     1.0000 0.96574  0.00273  0.93262  Biso   1.000  Ne
  Ne49     1.0000 0.44867  0.30853  0.82366  Biso   1.000  Ne
  He49     1.0000 0.45453  0.27838  0.81308  Biso   1.000  He
  He50     1.0000 0.42761  0.25887  0.80525  Biso   1.000  He
  Ne50     1.0000 0.41311  0.24445  0.83239  Biso   1.000  Ne
  Ne51     1.0000 0.21331  0.03540  0.09771  Biso   1.000  Ne
  He51     1.0000 0.22236  0.01730  0.12429  Biso   1.000  He
  He52     1.0000 0.23750  0.03077  0.14990  Biso   1.000  He
  Ne52     1.0000 0.27039  0.02867  0.14605  Biso   1.000  Ne
  Ne53     1.0000 0.38468  0.56230  0.17630  Biso   1.000  Ne
  He53     1.0000 0.41397  0.56519  0.16168  Biso   1.000  He
  He54     1.0000 0.42471  0.59392  0.15125  Biso   1.000  He
  Ne54     1.0000 0.41981  0.59897  0.11874  Biso   1.000  Ne
  Ne55     1.0000 0.43015  0.06638  0.60487  Biso   1.000  Ne
  He55     1.0000 0.41478  0.06893  0.63709  Biso   1.000  He
  He56     1.0000 0.38740  0.05286  0.63724  Biso   1.000  He
  Ne56     1.0000 0.37071  0.04832  0.66632  Biso   1.000  Ne
  Ne57     1.0000 0.60396  0.34846  0.95533  Biso   1.000  Ne
  He57     1.0000 0.58688  0.37369  0.97306  Biso   1.000  He
  He58     1.0000 0.60549  0.40096  0.97250  Biso   1.000  He
  Ne58     1.0000 0.59658  0.42214  0.99509  Biso   1.000  Ne
  Ne59     1.0000 0.09666  0.33933  0.42259  Biso   1.000  Ne
  He59     1.0000 0.10917  0.31119  0.40536  Biso   1.000  He
  He60     1.0000 0.08842  0.29703  0.38473  Biso   1.000  He
  Ne60     1.0000 0.10096  0.27007  0.36946  Biso   1.000  Ne
