data_image0
_cell_length_a       46.8253
_cell_length_b       46.6248
_cell_length_c       46.6255
_cell_angle_alpha    90
_cell_angle_beta     90
_cell_angle_gamma    90

_symmetry_space_group_name_H-M    "P 1"
_symmetry_int_tables_number       1

loop_
  _symmetry_equiv_pos_as_xyz
  'x, y, z'

loop_
  _atom_site_label
  _atom_site_occupancy
  _atom_site_fract_x
  _atom_site_fract_y
  _atom_site_fract_z
  _atom_site_thermal_displace_type
  _atom_site_B_iso_or_equiv
  _atom_site_type_symbol
  Ne1      1.0000 0.57937  0.84199  0.43161  Biso   1.000  Ne
  He1      1.0000 0.59898  0.86300  0.41612  Biso   1.000  He
  He2      1.0000 0.59559  0.86309  0.38282  Biso   1.000  He
  Ne2      1.0000 0.60835  0.89101  0.37095  Biso   1.000  Ne
  Ne3      1.0000 0.92933  0.84053  0.10838  Biso   1.000  Ne
  He3      1.0000 0.94660  0.86770  0.11244  Biso   1.000  He
  He4      1.0000 0.96399  0.87732  0.08608  Biso   1.000  He
  Ne4      1.0000 0.94840  0.89899  0.06765  Biso   1.000  Ne
  Ne5      1.0000 0.92122  0.44223  0.51876  Biso   1.000  Ne
  He5      1.0000 0.92471  0.45482  0.48919  Biso   1.000  He
  He6      1.0000 0.95638  0.45051  0.47877  Biso   1.000  He
  Ne6      1.0000 0.96328  0.46264  0.44920  Biso   1.000  Ne
  Ne7      1.0000 0.92542  0.31536  0.41124  Biso   1.000  Ne
  He7      1.0000 0.91636  0.34685  0.40937  Biso   1.000  He
  He8      1.0000 0.93768  0.36641  0.39308  Biso   1.000  He
  Ne8      1.0000 0.93219  0.39820  0.39185  Biso   1.000  Ne
  Ne9      1.0000 0.92422  0.59202  0.38842  Biso   1.000  Ne
  He9      1.0000 0.91077  0.58965  0.41927  Biso   1.000  He
  He10     1.0000 0.92071  0.56165  0.43840  Biso   1.000  He
  Ne10     1.0000 0.89972  0.53559  0.44144  Biso   1.000  Ne
  Ne11     1.0000 0.43205  0.34534  0.13591  Biso   1.000  Ne
  He11     1.0000 0.43674  0.37342  0.11801  Biso   1.000  He
  He12     1.0000 0.42315  0.39974  0.13529  Biso   1.000  He
  Ne12     1.0000 0.42874  0.42819  0.11954  Biso   1.000  Ne
  Ne13     1.0000 0.13009  0.88090  0.12427  Biso   1.000  Ne
  He13     1.0000 0.12202  0.86191  0.09740  Biso   1.000  He
  He14     1.0000 0.11471  0.88204  0.07218  Biso   1.000  He
  Ne14     1.0000 0.08142  0.88913  0.06554  Biso   1.000  Ne
  Ne15     1.0000 0.16299  0.34184  0.42797  Biso   1.000  Ne
  He15     1.0000 0.19036  0.35779  0.42933  Biso   1.000  He
  He16     1.0000 0.20700  0.35722  0.39778  Biso   1.000  He
  Ne16     1.0000 0.23929  0.37437  0.39947  Biso   1.000  Ne
  Ne17     1.0000 0.45923  0.90191  0.49987  Biso   1.000  Ne
  He17     1.0000 0.46421  0.87986  0.47724  Biso   1.000  He
  He18     1.0000 0.45060  0.88561  0.44801  Biso   1.000  He
  Ne18     1.0000 0.47474  0.89367  0.42489  Biso   1.000  Ne
  Ne19     1.0000 0.94786  0.29462  0.60417  Biso   1.000  Ne
  He19     1.0000 0.94454  0.26151  0.60813  Biso   1.000  He
  He20     1.0000 0.93297  0.24712  0.58339  Biso   1.000  He
  Ne20     1.0000 0.93595  0.21211  0.57976  Biso   1.000  Ne
  Ne21     1.0000 0.07083  0.42172  0.57913  Biso   1.000  Ne
  He21     1.0000 0.03996  0.42579  0.56203  Biso   1.000  He
  He22     1.0000 0.01500  0.43911  0.57915  Biso   1.000  He
  Ne22     1.0000 0.01424  0.47395  0.58230  Biso   1.000  Ne
  Ne23     1.0000 0.58562  0.85568  0.69432  Biso   1.000  Ne
  He23     1.0000 0.57634  0.84449  0.66576  Biso   1.000  He
  He24     1.0000 0.59669  0.85061  0.64196  Biso   1.000  He
  Ne24     1.0000 0.58476  0.84551  0.61089  Biso   1.000  Ne
  Ne25     1.0000 0.72775  0.37646  0.83647  Biso   1.000  Ne
  He25     1.0000 0.70663  0.36372  0.85735  Biso   1.000  He
  He26     1.0000 0.67710  0.36155  0.84181  Biso   1.000  He
  Ne26     1.0000 0.65237  0.38351  0.84893  Biso   1.000  Ne
  Ne27     1.0000 0.49079  0.05791  0.44340  Biso   1.000  Ne
  He27     1.0000 0.47358  0.02964  0.44572  Biso   1.000  He
  He28     1.0000 0.44876  0.02726  0.46661  Biso   1.000  He
  Ne28     1.0000 0.42741  0.00067  0.46441  Biso   1.000  Ne
  Ne29     1.0000 0.58843  0.02075  0.50475  Biso   1.000  Ne
  He29     1.0000 0.58548  0.04271  0.53048  Biso   1.000  He
  He30     1.0000 0.57105  0.02998  0.55702  Biso   1.000  He
  Ne30     1.0000 0.56212  0.05174  0.58091  Biso   1.000  Ne
  Ne31     1.0000 0.32396  0.91135  0.59868  Biso   1.000  Ne
  He31     1.0000 0.33722  0.88598  0.61875  Biso   1.000  He
  He32     1.0000 0.33120  0.85474  0.61030  Biso   1.000  He
  Ne32     1.0000 0.34374  0.83064  0.62931  Biso   1.000  Ne
  Ne33     1.0000 0.62211  0.39732  0.94068  Biso   1.000  Ne
  He33     1.0000 0.62415  0.36467  0.93535  Biso   1.000  He
  He34     1.0000 0.59305  0.35137  0.93825  Biso   1.000  He
  Ne34     1.0000 0.59003  0.31862  0.93550  Biso   1.000  Ne
  Ne35     1.0000 0.83820  0.37700  0.40404  Biso   1.000  Ne
  He35     1.0000 0.80902  0.36055  0.40523  Biso   1.000  He
  He36     1.0000 0.79399  0.35948  0.37478  Biso   1.000  He
  Ne36     1.0000 0.76572  0.34471  0.37243  Biso   1.000  Ne
  Ne37     1.0000 0.12930  0.04329  0.04950  Biso   1.000  Ne
  He37     1.0000 0.10136  0.04840  0.07051  Biso   1.000  He
  He38     1.0000 0.08841  0.01947  0.08395  Biso   1.000  He
  Ne38     1.0000 0.06146  0.03060  0.10181  Biso   1.000  Ne
  Ne39     1.0000 0.50564  0.40515  0.93078  Biso   1.000  Ne
  He39     1.0000 0.49818  0.42489  0.95785  Biso   1.000  He
  He40     1.0000 0.50572  0.45656  0.95784  Biso   1.000  He
  Ne40     1.0000 0.49773  0.47570  0.98348  Biso   1.000  Ne
  Ne41     1.0000 0.43042  0.87813  0.32024  Biso   1.000  Ne
  He41     1.0000 0.43749  0.84649  0.32317  Biso   1.000  He
  He42     1.0000 0.42273  0.83424  0.35107  Biso   1.000  He
  Ne42     1.0000 0.42613  0.80129  0.35438  Biso   1.000  Ne
  Ne43     1.0000 0.10996  0.56635  0.71623  Biso   1.000  Ne
  He43     1.0000 0.09098  0.55817  0.74266  Biso   1.000  He
  He44     1.0000 0.10108  0.56979  0.77099  Biso   1.000  He
  Ne44     1.0000 0.08875  0.55660  0.79682  Biso   1.000  Ne
  Ne45     1.0000 0.41849  0.64050  0.81790  Biso   1.000  Ne
  He45     1.0000 0.42742  0.63687  0.84747  Biso   1.000  He
  He46     1.0000 0.41654  0.66070  0.86599  Biso   1.000  He
  Ne46     1.0000 0.42524  0.66215  0.89711  Biso   1.000  Ne
  Ne47     1.0000 0.92967  0.04249  0.15724  Biso   1.000  Ne
  He47     1.0000 0.91568  0.05742  0.13062  Biso   1.000  He
  He48     1.0000 0.93129  0.05642  0.10125  Biso   1.000  He
  Ne48     1.0000 0.91499  0.07092  0.07392  Biso   1.000  Ne
  Ne49     1.0000 0.56857  0.88024  0.18796  Biso   1.000  Ne
  He49     1.0000 0.54362  0.90014  0.18130  Biso   1.000  He
  He50     1.0000 0.51856  0.90370  0.20599  Biso   1.000  He
  Ne50     1.0000 0.49523  0.92278  0.19766  Biso   1.000  Ne
  Ne51     1.0000 0.95677  0.38090  0.70713  Biso   1.000  Ne
  He51     1.0000 0.96293  0.35569  0.73080  Biso   1.000  He
  He52     1.0000 0.96892  0.32531  0.71615  Biso   1.000  He
  Ne52     1.0000 0.97152  0.30363  0.73804  Biso   1.000  Ne
  Ne53     1.0000 0.82393  0.06487  0.17407  Biso   1.000  Ne
  He53     1.0000 0.83806  0.06896  0.14446  Biso   1.000  He
  He54     1.0000 0.83032  0.09962  0.12958  Biso   1.000  He
  Ne54     1.0000 0.83967  0.09494  0.09766  Biso   1.000  Ne
  Ne55     1.0000 0.84825  0.53302  0.70156  Biso   1.000  Ne
  He55     1.0000 0.87562  0.52571  0.68025  Biso   1.000  He
  He56     1.0000 0.89906  0.55072  0.67673  Biso   1.000  He
  Ne56     1.0000 0.92033  0.54069  0.65391  Biso   1.000  Ne
  Ne57     1.0000 0.91098  0.87860  0.93529  Biso   1.000  Ne
  He57     1.0000 0.88155  0.86711  0.94420  Biso   1.000  He
  He58     1.0000 0.85741  0.88289  0.93162  Biso   1.000  He
  Ne58     1.0000 0.82851  0.87206  0.94504  Biso   1.000  Ne
  Ne59     1.0000 0.08002  0.15483  0.13673  Biso   1.000  Ne
  He59     1.0000 0.11001  0.14569  0.12074  Biso   1.000  He
  He60     1.0000 0.11121  0.15848  0.09069  Biso   1.000  He
  Ne60     1.0000 0.13713  0.15483  0.07329  Biso   1.000  Ne
  Ne61     1.0000 0.36794  0.59692  0.33383  Biso   1.000  Ne
  He61     1.0000 0.36200  0.62882  0.32545  Biso   1.000  He
  He62     1.0000 0.37197  0.64749  0.35048  Biso   1.000  He
  Ne62     1.0000 0.37672  0.67924  0.34283  Biso   1.000  Ne
  Ne63     1.0000 0.57411  0.42001  0.07489  Biso   1.000  Ne
  He63     1.0000 0.57868  0.42488  0.04416  Biso   1.000  He
  He64     1.0000 0.60072  0.44629  0.03582  Biso   1.000  He
  Ne64     1.0000 0.60519  0.44841  0.00362  Biso   1.000  Ne
  Ne65     1.0000 0.43031  0.84220  0.59530  Biso   1.000  Ne
  He65     1.0000 0.43525  0.87330  0.59157  Biso   1.000  He
  He66     1.0000 0.41183  0.88865  0.57242  Biso   1.000  He
  Ne66     1.0000 0.41881  0.92185  0.56620  Biso   1.000  Ne
  Ne67     1.0000 0.42280  0.18437  0.38544  Biso   1.000  Ne
  He67     1.0000 0.41190  0.19297  0.35379  Biso   1.000  He
  He68     1.0000 0.42542  0.17227  0.33169  Biso   1.000  He
  Ne68     1.0000 0.41650  0.17488  0.29789  Biso   1.000  Ne
  Ne69     1.0000 0.85157  0.87689  0.84380  Biso   1.000  Ne
  He69     1.0000 0.86209  0.86378  0.81691  Biso   1.000  He
  He70     1.0000 0.88712  0.88206  0.80731  Biso   1.000  He
  Ne70     1.0000 0.89388  0.87512  0.77713  Biso   1.000  Ne
  Ne71     1.0000 0.87837  0.04643  0.85257  Biso   1.000  Ne
  He71     1.0000 0.90554  0.04204  0.86958  Biso   1.000  He
  He72     1.0000 0.90832  0.04918  0.90249  Biso   1.000  He
  Ne72     1.0000 0.94092  0.04766  0.91218  Biso   1.000  Ne
  Ne73     1.0000 0.89451  0.39424  0.58002  Biso   1.000  Ne
  He73     1.0000 0.91346  0.38559  0.60541  Biso   1.000  He
  He74     1.0000 0.94523  0.37759  0.59762  Biso   1.000  He
  Ne74     1.0000 0.96524  0.37428  0.62388  Biso   1.000  Ne
  Ne75     1.0000 0.15482  0.63165  0.44653  Biso   1.000  Ne
  He75     1.0000 0.12345  0.64123  0.44270  Biso   1.000  He
  He76     1.0000 0.11959  0.67360  0.43866  Biso   1.000  He
  Ne76     1.0000 0.08840  0.68242  0.43633  Biso   1.000  Ne
  Ne77     1.0000 0.41706  0.88885  0.67784  Biso   1.000  Ne
  He77     1.0000 0.40338  0.86013  0.68976  Biso   1.000  He
  He78     1.0000 0.39948  0.85450  0.72033  Biso   1.000  He
  Ne78     1.0000 0.38036  0.82901  0.72466  Biso   1.000  Ne
  Ne79     1.0000 0.45286  0.08341  0.54451  Biso   1.000  Ne
  He79     1.0000 0.42336  0.06915  0.53845  Biso   1.000  He
  He80     1.0000 0.42377  0.03523  0.54660  Biso   1.000  He
  Ne80     1.0000 0.41932  0.02661  0.58039  Biso   1.000  Ne
  Ne81     1.0000 0.05293  0.47911  0.45947  Biso   1.000  Ne
  He81     1.0000 0.05471  0.50446  0.43754  Biso   1.000  He
  He82     1.0000 0.06731  0.52948  0.44998  Biso   1.000  He
  Ne82     1.0000 0.06973  0.55441  0.42903  Biso   1.000  Ne
  Ne83     1.0000 0.84273  0.32372  0.64837  Biso   1.000  Ne
  He83     1.0000 0.84870  0.31288  0.61524  Biso   1.000  He
  He84     1.0000 0.83432  0.33385  0.59461  Biso   1.000  He
  Ne84     1.0000 0.83074  0.32278  0.56379  Biso   1.000  Ne
  Ne85     1.0000 0.49878  0.49795  0.09262  Biso   1.000  Ne
  He85     1.0000 0.46704  0.49041  0.08429  Biso   1.000  He
  He86     1.0000 0.45067  0.51653  0.07723  Biso   1.000  He
  Ne86     1.0000 0.42037  0.50788  0.06302  Biso   1.000  Ne
  Ne87     1.0000 0.33548  0.56001  0.09147  Biso   1.000  Ne
  He87     1.0000 0.34365  0.58725  0.10173  Biso   1.000  He
  He88     1.0000 0.36000  0.60768  0.08271  Biso   1.000  He
  Ne88     1.0000 0.36733  0.63803  0.09845  Biso   1.000  Ne
  Ne89     1.0000 0.79439  0.57311  0.60449  Biso   1.000  Ne
  He89     1.0000 0.82400  0.56571  0.59204  Biso   1.000  He
  He90     1.0000 0.84486  0.59202  0.58930  Biso   1.000  He
  Ne90     1.0000 0.87436  0.58812  0.57880  Biso   1.000  Ne
  Ne91     1.0000 0.13435  0.05180  0.87016  Biso   1.000  Ne
  He91     1.0000 0.15644  0.04916  0.89499  Biso   1.000  He
  He92     1.0000 0.18893  0.05608  0.88896  Biso   1.000  He
  Ne92     1.0000 0.21187  0.05147  0.91455  Biso   1.000  Ne
  Ne93     1.0000 0.97045  0.53137  0.51190  Biso   1.000  Ne
  He93     1.0000 0.94302  0.53505  0.53299  Biso   1.000  He
  He94     1.0000 0.93458  0.51024  0.55194  Biso   1.000  He
  Ne94     1.0000 0.90980  0.51914  0.57320  Biso   1.000  Ne
  Ne95     1.0000 0.90498  0.76817  0.84424  Biso   1.000  Ne
  He95     1.0000 0.90384  0.78644  0.87063  Biso   1.000  He
  He96     1.0000 0.91244  0.77223  0.90054  Biso   1.000  He
  Ne96     1.0000 0.90940  0.79230  0.92900  Biso   1.000  Ne
  Ne97     1.0000 0.17499  0.79202  0.92036  Biso   1.000  Ne
  He97     1.0000 0.15501  0.76508  0.90973  Biso   1.000  He
  He98     1.0000 0.13165  0.75577  0.93151  Biso   1.000  He
  Ne98     1.0000 0.11251  0.73363  0.92110  Biso   1.000  Ne
  Ne99     1.0000 0.08978  0.84305  0.93343  Biso   1.000  Ne
  He99     1.0000 0.06618  0.85466  0.91107  Biso   1.000  He
  He100    1.0000 0.07967  0.88014  0.88888  Biso   1.000  He
  Ne100    1.0000 0.08496  0.87102  0.85515  Biso   1.000  Ne
  Ne101    1.0000 0.93874  0.42321  0.24644  Biso   1.000  Ne
  He101    1.0000 0.91657  0.41558  0.26839  Biso   1.000  He
  He102    1.0000 0.92728  0.40495  0.29790  Biso   1.000  He
  Ne102    1.0000 0.90048  0.39802  0.31800  Biso   1.000  Ne
  Ne103    1.0000 0.92165  0.62902  0.65170  Biso   1.000  Ne
  He103    1.0000 0.88880  0.64250  0.64982  Biso   1.000  He
  He104    1.0000 0.88775  0.67434  0.66235  Biso   1.000  He
  Ne104    1.0000 0.85946  0.69200  0.66193  Biso   1.000  Ne
  Ne105    1.0000 0.57767  0.05936  0.41692  Biso   1.000  Ne
  He105    1.0000 0.59971  0.06842  0.39591  Biso   1.000  He
  He106    1.0000 0.62962  0.06362  0.40802  Biso   1.000  He
  Ne106    1.0000 0.65422  0.06738  0.38509  Biso   1.000  Ne
  Ne107    1.0000 0.21554  0.59909  0.60004  Biso   1.000  Ne
  He107    1.0000 0.19068  0.58653  0.61564  Biso   1.000  He
  He108    1.0000 0.19881  0.56517  0.63836  Biso   1.000  He
  Ne108    1.0000 0.19930  0.57796  0.66893  Biso   1.000  Ne
  Ne109    1.0000 0.43708  0.11205  0.40644  Biso   1.000  Ne
  He109    1.0000 0.40723  0.10091  0.39722  Biso   1.000  He
  He110    1.0000 0.39812  0.07216  0.41401  Biso   1.000  He
  Ne110    1.0000 0.36910  0.05756  0.40038  Biso   1.000  Ne
  Ne111    1.0000 0.07144  0.80219  0.78622  Biso   1.000  Ne
  He111    1.0000 0.08054  0.77616  0.76856  Biso   1.000  He
  He112    1.0000 0.05486  0.76437  0.74935  Biso   1.000  He
  Ne112    1.0000 0.06364  0.73731  0.73334  Biso   1.000  Ne
  Ne113    1.0000 0.20540  0.87882  0.89640  Biso   1.000  Ne
  He113    1.0000 0.18741  0.87335  0.86771  Biso   1.000  He
  He114    1.0000 0.17562  0.89886  0.85055  Biso   1.000  He
  Ne114    1.0000 0.15468  0.89232  0.82691  Biso   1.000  Ne
  Ne115    1.0000 0.66345  0.17134  0.38437  Biso   1.000  Ne
  He115    1.0000 0.69492  0.15993  0.38533  Biso   1.000  He
  He116    1.0000 0.71720  0.16953  0.41141  Biso   1.000  He
  Ne116    1.0000 0.74909  0.16138  0.40818  Biso   1.000  Ne
  Ne117    1.0000 0.41770  0.56155  0.22454  Biso   1.000  Ne
  He117    1.0000 0.42200  0.57131  0.19375  Biso   1.000  He
  He118    1.0000 0.39804  0.55979  0.17176  Biso   1.000  He
  Ne118    1.0000 0.40272  0.57084  0.14229  Biso   1.000  Ne
  Ne119    1.0000 0.59954  0.60247  0.20677  Biso   1.000  Ne
  He119    1.0000 0.59361  0.62949  0.18771  Biso   1.000  He
  He120    1.0000 0.62277  0.64179  0.17503  Biso   1.000  He
  Ne120    1.0000 0.62046  0.66908  0.15605  Biso   1.000  Ne
  Ne121    1.0000 0.85153  0.25861  0.37867  Biso   1.000  Ne
  He121    1.0000 0.87448  0.23578  0.37653  Biso   1.000  He
  He122    1.0000 0.90668  0.24958  0.37926  Biso   1.000  He
  Ne122    1.0000 0.92947  0.22546  0.38167  Biso   1.000  Ne
  Ne123    1.0000 0.10181  0.59739  0.34324  Biso   1.000  Ne
  He123    1.0000 0.10263  0.58608  0.31328  Biso   1.000  He
  He124    1.0000 0.09718  0.55367  0.30834  Biso   1.000  He
  Ne124    1.0000 0.08743  0.54589  0.27792  Biso   1.000  Ne
  Ne125    1.0000 0.36863  0.37777  0.86971  Biso   1.000  Ne
  He125    1.0000 0.36925  0.39142  0.89934  Biso   1.000  He
  He126    1.0000 0.39784  0.38338  0.91485  Biso   1.000  He
  Ne126    1.0000 0.40469  0.40088  0.94145  Biso   1.000  Ne
  Ne127    1.0000 0.62871  0.36675  0.11587  Biso   1.000  Ne
  He127    1.0000 0.66067  0.36321  0.10464  Biso   1.000  He
  He128    1.0000 0.67897  0.39170  0.09754  Biso   1.000  He
  Ne128    1.0000 0.70911  0.38778  0.08643  Biso   1.000  Ne
  Ne129    1.0000 0.62989  0.11557  0.60422  Biso   1.000  Ne
  He129    1.0000 0.64659  0.09177  0.58879  Biso   1.000  He
  He130    1.0000 0.65964  0.07095  0.60962  Biso   1.000  He
  Ne130    1.0000 0.67643  0.04669  0.59788  Biso   1.000  Ne
  Ne131    1.0000 0.63523  0.55912  0.84723  Biso   1.000  Ne
  He131    1.0000 0.66417  0.56907  0.86098  Biso   1.000  He
  He132    1.0000 0.66314  0.56728  0.89234  Biso   1.000  He
  Ne132    1.0000 0.68896  0.57716  0.90565  Biso   1.000  Ne
  Ne133    1.0000 0.10306  0.54431  0.57179  Biso   1.000  Ne
  He133    1.0000 0.10912  0.56645  0.59685  Biso   1.000  He
  He134    1.0000 0.08119  0.57783  0.60847  Biso   1.000  He
  Ne134    1.0000 0.08472  0.60097  0.63291  Biso   1.000  Ne
  Ne135    1.0000 0.33178  0.14530  0.59001  Biso   1.000  Ne
  He135    1.0000 0.36481  0.13528  0.58931  Biso   1.000  He
  He136    1.0000 0.38864  0.15888  0.58245  Biso   1.000  He
  Ne136    1.0000 0.41897  0.14638  0.58424  Biso   1.000  Ne
  Ne137    1.0000 0.67136  0.54769  0.12282  Biso   1.000  Ne
  He137    1.0000 0.64082  0.55931  0.11229  Biso   1.000  He
  He138    1.0000 0.63037  0.54293  0.08431  Biso   1.000  He
  Ne138    1.0000 0.60332  0.55490  0.07172  Biso   1.000  Ne
  Ne139    1.0000 0.35846  0.81925  0.43076  Biso   1.000  Ne
  He139    1.0000 0.38941  0.80249  0.42525  Biso   1.000  He
  He140    1.0000 0.39566  0.78244  0.44778  Biso   1.000  He
  Ne140    1.0000 0.42649  0.76528  0.44843  Biso   1.000  Ne
