data_image0
_cell_length_a       46.475
_cell_length_b       46.5885
_cell_length_c       46.6117
_cell_angle_alpha    90
_cell_angle_beta     90
_cell_angle_gamma    90

_symmetry_space_group_name_H-M    "P 1"
_symmetry_int_tables_number       1

loop_
  _symmetry_equiv_pos_as_xyz
  'x, y, z'

loop_
  _atom_site_label
  _atom_site_occupancy
  _atom_site_fract_x
  _atom_site_fract_y
  _atom_site_fract_z
  _atom_site_thermal_displace_type
  _atom_site_B_iso_or_equiv
  _atom_site_type_symbol
  Ne1      1.0000 0.33294  0.37509  0.88867  Biso   1.000  Ne
  He1      1.0000 0.34710  0.37357  0.91953  Biso   1.000  He
  He2      1.0000 0.33252  0.39209  0.94247  Biso   1.000  He
  Ne2      1.0000 0.34565  0.38443  0.97409  Biso   1.000  Ne
  Ne3      1.0000 0.76621  0.07319  0.41402  Biso   1.000  Ne
  He3      1.0000 0.73809  0.08762  0.42110  Biso   1.000  He
  He4      1.0000 0.71174  0.07143  0.40764  Biso   1.000  He
  Ne4      1.0000 0.67976  0.08166  0.41690  Biso   1.000  Ne
  Ne5      1.0000 0.57008  0.08703  0.77791  Biso   1.000  Ne
  He5      1.0000 0.59002  0.10774  0.76459  Biso   1.000  He
  He6      1.0000 0.62034  0.09685  0.76354  Biso   1.000  He
  Ne6      1.0000 0.64302  0.11976  0.75504  Biso   1.000  Ne
  Ne7      1.0000 0.98321  0.39357  0.52963  Biso   1.000  Ne
  He7      1.0000 0.95630  0.40596  0.54571  Biso   1.000  He
  He8      1.0000 0.95716  0.43980  0.54547  Biso   1.000  He
  Ne8      1.0000 0.93663  0.45526  0.56533  Biso   1.000  Ne
  Ne9      1.0000 0.55651  0.11994  0.20569  Biso   1.000  Ne
  He9      1.0000 0.53295  0.12026  0.22967  Biso   1.000  He
  He10     1.0000 0.50215  0.12845  0.21816  Biso   1.000  He
  Ne10     1.0000 0.49193  0.15439  0.23294  Biso   1.000  Ne
  Ne11     1.0000 0.63481  0.37842  0.18293  Biso   1.000  Ne
  He11     1.0000 0.60972  0.39009  0.16230  Biso   1.000  He
  He12     1.0000 0.59832  0.36614  0.13988  Biso   1.000  He
  Ne12     1.0000 0.57022  0.37443  0.12370  Biso   1.000  Ne
  Ne13     1.0000 0.12839  0.30412  0.72435  Biso   1.000  Ne
  He13     1.0000 0.10559  0.28406  0.71030  Biso   1.000  He
  He14     1.0000 0.10270  0.25517  0.72632  Biso   1.000  He
  Ne14     1.0000 0.08154  0.23233  0.71637  Biso   1.000  Ne
  Ne15     1.0000 0.86774  0.55131  0.44435  Biso   1.000  Ne
  He15     1.0000 0.88607  0.57252  0.46452  Biso   1.000  He
  He16     1.0000 0.91828  0.57634  0.45394  Biso   1.000  He
  Ne16     1.0000 0.93534  0.59934  0.47328  Biso   1.000  Ne
  Ne17     1.0000 0.11264  0.07179  0.94130  Biso   1.000  Ne
  He17     1.0000 0.11871  0.10291  0.94913  Biso   1.000  He
  He18     1.0000 0.09128  0.11775  0.96110  Biso   1.000  He
  Ne18     1.0000 0.09540  0.14848  0.96783  Biso   1.000  Ne
  Ne19     1.0000 0.46816  0.98302  0.60191  Biso   1.000  Ne
  He19     1.0000 0.46162  0.01496  0.60582  Biso   1.000  He
  He20     1.0000 0.45999  0.03113  0.57719  Biso   1.000  He
  Ne20     1.0000 0.45921  0.06390  0.58081  Biso   1.000  Ne
  Ne21     1.0000 0.45416  0.19889  0.61933  Biso   1.000  Ne
  He21     1.0000 0.43234  0.19492  0.64372  Biso   1.000  He
  He22     1.0000 0.44508  0.20202  0.67366  Biso   1.000  He
  Ne22     1.0000 0.42492  0.19692  0.69786  Biso   1.000  Ne
  Ne23     1.0000 0.37414  0.03770  0.62818  Biso   1.000  Ne
  He23     1.0000 0.38673  0.06111  0.64817  Biso   1.000  He
  He24     1.0000 0.40108  0.08775  0.63486  Biso   1.000  He
  Ne24     1.0000 0.41187  0.11199  0.65578  Biso   1.000  Ne
  Ne25     1.0000 0.36970  0.56391  0.14874  Biso   1.000  Ne
  He25     1.0000 0.36769  0.56978  0.17901  Biso   1.000  He
  He26     1.0000 0.33697  0.57540  0.19086  Biso   1.000  He
  Ne26     1.0000 0.33540  0.57889  0.22448  Biso   1.000  Ne
  Ne27     1.0000 0.74341  0.40958  0.85777  Biso   1.000  Ne
  He27     1.0000 0.72300  0.39923  0.88170  Biso   1.000  He
  He28     1.0000 0.69422  0.38581  0.87140  Biso   1.000  He
  Ne28     1.0000 0.69455  0.35271  0.86880  Biso   1.000  Ne
  Ne29     1.0000 0.71442  0.11937  0.09980  Biso   1.000  Ne
  He29     1.0000 0.69963  0.14691  0.10240  Biso   1.000  He
  He30     1.0000 0.71492  0.17345  0.09436  Biso   1.000  He
  Ne30     1.0000 0.69884  0.20251  0.10036  Biso   1.000  Ne
  Ne31     1.0000 0.33836  0.06184  0.43270  Biso   1.000  Ne
  He31     1.0000 0.36304  0.08197  0.44042  Biso   1.000  He
  He32     1.0000 0.34970  0.11190  0.44942  Biso   1.000  He
  Ne32     1.0000 0.37331  0.13683  0.45178  Biso   1.000  Ne
  Ne33     1.0000 0.42747  0.33956  0.90169  Biso   1.000  Ne
  He33     1.0000 0.43754  0.35474  0.92969  Biso   1.000  He
  He34     1.0000 0.43004  0.38685  0.92997  Biso   1.000  He
  Ne34     1.0000 0.43019  0.40091  0.96159  Biso   1.000  Ne
  Ne35     1.0000 0.66667  0.04950  0.69127  Biso   1.000  Ne
  He35     1.0000 0.67822  0.05721  0.66243  Biso   1.000  He
  He36     1.0000 0.69936  0.08212  0.66506  Biso   1.000  He
  Ne36     1.0000 0.71766  0.08905  0.63847  Biso   1.000  Ne
  Ne37     1.0000 0.61370  0.63693  0.11950  Biso   1.000  Ne
  He37     1.0000 0.59659  0.64468  0.14858  Biso   1.000  He
  He38     1.0000 0.61536  0.65971  0.16944  Biso   1.000  He
  Ne38     1.0000 0.59959  0.66712  0.19850  Biso   1.000  Ne
  Ne39     1.0000 0.39459  0.25509  0.21544  Biso   1.000  Ne
  He39     1.0000 0.39771  0.27130  0.18632  Biso   1.000  He
  He40     1.0000 0.42888  0.26760  0.17164  Biso   1.000  He
  Ne40     1.0000 0.43302  0.28642  0.14551  Biso   1.000  Ne
  Ne41     1.0000 0.85795  0.37293  0.37917  Biso   1.000  Ne
  He41     1.0000 0.87724  0.36769  0.35384  Biso   1.000  He
  He42     1.0000 0.90693  0.38364  0.35205  Biso   1.000  He
  Ne42     1.0000 0.92414  0.37172  0.32594  Biso   1.000  Ne
  Ne43     1.0000 0.58833  0.15540  0.44560  Biso   1.000  Ne
  He43     1.0000 0.58976  0.12560  0.43378  Biso   1.000  He
  He44     1.0000 0.60334  0.12478  0.40223  Biso   1.000  He
  Ne44     1.0000 0.60002  0.09709  0.38746  Biso   1.000  Ne
  Ne45     1.0000 0.58940  0.41583  0.91795  Biso   1.000  Ne
  He45     1.0000 0.59313  0.41622  0.95084  Biso   1.000  He
  He46     1.0000 0.58114  0.44276  0.96715  Biso   1.000  He
  Ne46     1.0000 0.58562  0.43401  0.99911  Biso   1.000  Ne
  Ne47     1.0000 0.11364  0.54082  0.49324  Biso   1.000  Ne
  He47     1.0000 0.10258  0.55138  0.46541  Biso   1.000  He
  He48     1.0000 0.10808  0.52829  0.44177  Biso   1.000  He
  Ne48     1.0000 0.10291  0.53861  0.41147  Biso   1.000  Ne
  Ne49     1.0000 0.81875  0.11449  0.20944  Biso   1.000  Ne
  He49     1.0000 0.82779  0.12673  0.18194  Biso   1.000  He
  He50     1.0000 0.80443  0.11940  0.15450  Biso   1.000  He
  Ne50     1.0000 0.81859  0.12900  0.12607  Biso   1.000  Ne
  Ne51     1.0000 0.11311  0.51889  0.58800  Biso   1.000  Ne
  He51     1.0000 0.11997  0.54096  0.61206  Biso   1.000  He
  He52     1.0000 0.09509  0.53963  0.63387  Biso   1.000  He
  Ne52     1.0000 0.10256  0.56197  0.65895  Biso   1.000  Ne
  Ne53     1.0000 0.81217  0.29124  0.70440  Biso   1.000  Ne
  He53     1.0000 0.81946  0.28696  0.67267  Biso   1.000  He
  He54     1.0000 0.80528  0.26253  0.65798  Biso   1.000  He
  Ne54     1.0000 0.81353  0.26110  0.62503  Biso   1.000  Ne
  Ne55     1.0000 0.59323  0.31612  0.91079  Biso   1.000  Ne
  He55     1.0000 0.61119  0.33370  0.89192  Biso   1.000  He
  He56     1.0000 0.59589  0.34453  0.86304  Biso   1.000  He
  Ne56     1.0000 0.61362  0.36456  0.84281  Biso   1.000  Ne
  Ne57     1.0000 0.48657  0.45285  0.96573  Biso   1.000  Ne
  He57     1.0000 0.47659  0.48143  0.98040  Biso   1.000  He
  He58     1.0000 0.44725  0.49336  0.96761  Biso   1.000  He
  Ne58     1.0000 0.43961  0.52308  0.97930  Biso   1.000  Ne
  Ne59     1.0000 0.38229  0.69244  0.94055  Biso   1.000  Ne
  He59     1.0000 0.35156  0.68010  0.93377  Biso   1.000  He
  He60     1.0000 0.34478  0.64551  0.93402  Biso   1.000  He
  Ne60     1.0000 0.31326  0.63667  0.92889  Biso   1.000  Ne
  Ne61     1.0000 0.28904  0.69403  0.13739  Biso   1.000  Ne
  He61     1.0000 0.31233  0.67206  0.13282  Biso   1.000  He
  He62     1.0000 0.33371  0.67816  0.10978  Biso   1.000  He
  Ne62     1.0000 0.36195  0.65754  0.10771  Biso   1.000  Ne
  Ne63     1.0000 0.12400  0.62570  0.45134  Biso   1.000  Ne
  He63     1.0000 0.13012  0.64902  0.43226  Biso   1.000  He
  He64     1.0000 0.10459  0.66817  0.42632  Biso   1.000  He
  Ne64     1.0000 0.11375  0.69014  0.40218  Biso   1.000  Ne
  Ne65     1.0000 0.85705  0.63913  0.64808  Biso   1.000  Ne
  He65     1.0000 0.88484  0.63335  0.63503  Biso   1.000  He
  He66     1.0000 0.90873  0.65042  0.65340  Biso   1.000  He
  Ne66     1.0000 0.93805  0.65044  0.63553  Biso   1.000  Ne
  Ne67     1.0000 0.61134  0.12926  0.66587  Biso   1.000  Ne
  He67     1.0000 0.59466  0.10893  0.68283  Biso   1.000  He
  He68     1.0000 0.58659  0.08157  0.66816  Biso   1.000  He
  Ne68     1.0000 0.56904  0.05854  0.68646  Biso   1.000  Ne
  Ne69     1.0000 0.43925  0.44794  0.07623  Biso   1.000  Ne
  He69     1.0000 0.44449  0.42400  0.09929  Biso   1.000  He
  He70     1.0000 0.41654  0.41459  0.11364  Biso   1.000  He
  Ne70     1.0000 0.41911  0.38758  0.13148  Biso   1.000  Ne
  Ne71     1.0000 0.08959  0.81350  0.95682  Biso   1.000  Ne
  He71     1.0000 0.10184  0.84625  0.95184  Biso   1.000  He
  He72     1.0000 0.08966  0.86932  0.97444  Biso   1.000  He
  Ne72     1.0000 0.10531  0.89826  0.96924  Biso   1.000  Ne
  Ne73     1.0000 0.11088  0.76069  0.12288  Biso   1.000  Ne
  He73     1.0000 0.11990  0.79071  0.13614  Biso   1.000  He
  He74     1.0000 0.10987  0.81800  0.11886  Biso   1.000  He
  Ne74     1.0000 0.11705  0.84534  0.13393  Biso   1.000  Ne
  Ne75     1.0000 0.35110  0.56859  0.96388  Biso   1.000  Ne
  He75     1.0000 0.33591  0.55530  0.93702  Biso   1.000  He
  He76     1.0000 0.30208  0.55533  0.93633  Biso   1.000  He
  Ne76     1.0000 0.28511  0.54451  0.90902  Biso   1.000  Ne
  Ne77     1.0000 0.08599  0.32784  0.41224  Biso   1.000  Ne
  He77     1.0000 0.08304  0.29696  0.42659  Biso   1.000  He
  He78     1.0000 0.10449  0.27504  0.41131  Biso   1.000  He
  Ne78     1.0000 0.10794  0.24582  0.42583  Biso   1.000  Ne
  Ne79     1.0000 0.88989  0.06080  0.15214  Biso   1.000  Ne
  He79     1.0000 0.90260  0.08555  0.13230  Biso   1.000  He
  He80     1.0000 0.90665  0.11710  0.14666  Biso   1.000  He
  Ne80     1.0000 0.91303  0.14021  0.12443  Biso   1.000  Ne
  Ne81     1.0000 0.17917  0.65912  0.63900  Biso   1.000  Ne
  He81     1.0000 0.15179  0.64043  0.63220  Biso   1.000  He
  He82     1.0000 0.12208  0.65768  0.63117  Biso   1.000  He
  Ne82     1.0000 0.10293  0.65932  0.65895  Biso   1.000  Ne
  Ne83     1.0000 0.19694  0.34842  0.46020  Biso   1.000  Ne
  He83     1.0000 0.16572  0.35984  0.45958  Biso   1.000  He
  He84     1.0000 0.16159  0.39259  0.46265  Biso   1.000  He
  Ne84     1.0000 0.13106  0.40356  0.46226  Biso   1.000  Ne
  Ne85     1.0000 0.89623  0.16252  0.95411  Biso   1.000  Ne
  He85     1.0000 0.88945  0.14071  0.93055  Biso   1.000  He
  He86     1.0000 0.86281  0.12297  0.93816  Biso   1.000  He
  Ne86     1.0000 0.85128  0.10691  0.91358  Biso   1.000  Ne
  Ne87     1.0000 0.92893  0.36073  0.42872  Biso   1.000  Ne
  He87     1.0000 0.92351  0.39026  0.43749  Biso   1.000  He
  He88     1.0000 0.92604  0.39635  0.46882  Biso   1.000  He
  Ne88     1.0000 0.91785  0.42656  0.47340  Biso   1.000  Ne
  Ne89     1.0000 0.41053  0.87831  0.67349  Biso   1.000  Ne
  He89     1.0000 0.39134  0.87971  0.70054  Biso   1.000  He
  He90     1.0000 0.40632  0.88408  0.72814  Biso   1.000  He
  Ne90     1.0000 0.38938  0.88204  0.75224  Biso   1.000  Ne
  Ne91     1.0000 0.63717  0.83588  0.46239  Biso   1.000  Ne
  He91     1.0000 0.62204  0.86550  0.46880  Biso   1.000  He
  He92     1.0000 0.63924  0.89006  0.45429  Biso   1.000  He
  Ne92     1.0000 0.62714  0.91949  0.45768  Biso   1.000  Ne
  Ne93     1.0000 0.40089  0.89164  0.35061  Biso   1.000  Ne
  He93     1.0000 0.40824  0.86245  0.36534  Biso   1.000  He
  He94     1.0000 0.44125  0.86141  0.37537  Biso   1.000  He
  Ne94     1.0000 0.44906  0.83501  0.39291  Biso   1.000  Ne
  Ne95     1.0000 0.09403  0.11972  0.14920  Biso   1.000  Ne
  He95     1.0000 0.12147  0.13338  0.16101  Biso   1.000  He
  He96     1.0000 0.13301  0.15786  0.14239  Biso   1.000  He
  Ne96     1.0000 0.16358  0.17005  0.15346  Biso   1.000  Ne
  Ne97     1.0000 0.44185  0.04905  0.44023  Biso   1.000  Ne
  He97     1.0000 0.43042  0.03018  0.46871  Biso   1.000  He
  He98     1.0000 0.45236  0.01526  0.48878  Biso   1.000  He
  Ne98     1.0000 0.43497  0.99654  0.51326  Biso   1.000  Ne
  Ne99     1.0000 0.24043  0.54975  0.62936  Biso   1.000  Ne
  He99     1.0000 0.25024  0.58261  0.64101  Biso   1.000  He
  He100    1.0000 0.26372  0.59981  0.61915  Biso   1.000  He
  Ne100    1.0000 0.26985  0.63070  0.63098  Biso   1.000  Ne
  Ne101    1.0000 0.16069  0.88110  0.88374  Biso   1.000  Ne
  He101    1.0000 0.13580  0.89426  0.86835  Biso   1.000  He
  He102    1.0000 0.11083  0.87581  0.85736  Biso   1.000  He
  Ne102    1.0000 0.08651  0.89275  0.84480  Biso   1.000  Ne
  Ne103    1.0000 0.09707  0.90886  0.04711  Biso   1.000  Ne
  He103    1.0000 0.07034  0.90867  0.06925  Biso   1.000  He
  He104    1.0000 0.07362  0.92688  0.09631  Biso   1.000  He
  Ne104    1.0000 0.04962  0.91760  0.12046  Biso   1.000  Ne
  Ne105    1.0000 0.50956  0.52819  0.05964  Biso   1.000  Ne
  He105    1.0000 0.50102  0.50832  0.08613  Biso   1.000  He
  He106    1.0000 0.48082  0.52427  0.10778  Biso   1.000  He
  Ne106    1.0000 0.47440  0.50727  0.13559  Biso   1.000  Ne
  Ne107    1.0000 0.42496  0.20843  0.30575  Biso   1.000  Ne
  He107    1.0000 0.42997  0.17481  0.30565  Biso   1.000  He
  He108    1.0000 0.43659  0.16303  0.33495  Biso   1.000  He
  Ne108    1.0000 0.44098  0.13269  0.33558  Biso   1.000  Ne
  Ne109    1.0000 0.14083  0.39300  0.65333  Biso   1.000  Ne
  He109    1.0000 0.17260  0.39857  0.64381  Biso   1.000  He
  He110    1.0000 0.18605  0.36773  0.63580  Biso   1.000  He
  Ne110    1.0000 0.21512  0.36782  0.62181  Biso   1.000  Ne
  Ne111    1.0000 0.94347  0.90114  0.14782  Biso   1.000  Ne
  He111    1.0000 0.92518  0.87369  0.14794  Biso   1.000  He
  He112    1.0000 0.92681  0.85284  0.12186  Biso   1.000  He
  Ne112    1.0000 0.94852  0.82594  0.12190  Biso   1.000  Ne
  Ne113    1.0000 0.41121  0.62276  0.21275  Biso   1.000  Ne
  He113    1.0000 0.42369  0.62711  0.18497  Biso   1.000  He
  He114    1.0000 0.42235  0.65938  0.17847  Biso   1.000  He
  Ne114    1.0000 0.43306  0.67193  0.15004  Biso   1.000  Ne
  Ne115    1.0000 0.04358  0.48096  0.61562  Biso   1.000  Ne
  He115    1.0000 0.05335  0.44770  0.61545  Biso   1.000  He
  He116    1.0000 0.03231  0.42781  0.59689  Biso   1.000  He
  Ne116    1.0000 0.04080  0.39479  0.59517  Biso   1.000  Ne
  Ne117    1.0000 0.37864  0.88469  0.44279  Biso   1.000  Ne
  He117    1.0000 0.40240  0.90315  0.45949  Biso   1.000  He
  He118    1.0000 0.42917  0.88755  0.47431  Biso   1.000  He
  Ne118    1.0000 0.45232  0.90466  0.49210  Biso   1.000  Ne
  Ne119    1.0000 0.90203  0.08406  0.84114  Biso   1.000  Ne
  He119    1.0000 0.90080  0.06172  0.86451  Biso   1.000  He
  He120    1.0000 0.92031  0.06956  0.89117  Biso   1.000  He
  Ne120    1.0000 0.92298  0.04647  0.91415  Biso   1.000  Ne
  Ne121    1.0000 0.60383  0.78687  0.63829  Biso   1.000  Ne
  He121    1.0000 0.61999  0.81778  0.64032  Biso   1.000  He
  He122    1.0000 0.64982  0.81892  0.62669  Biso   1.000  He
  Ne122    1.0000 0.66914  0.84786  0.63641  Biso   1.000  Ne
  Ne123    1.0000 0.87210  0.54406  0.64063  Biso   1.000  Ne
  He123    1.0000 0.89445  0.55368  0.61775  Biso   1.000  He
  He124    1.0000 0.92324  0.54383  0.62381  Biso   1.000  He
  Ne124    1.0000 0.94554  0.55319  0.60156  Biso   1.000  Ne
  Ne125    1.0000 0.24130  0.40140  0.18273  Biso   1.000  Ne
  He125    1.0000 0.25981  0.39202  0.15456  Biso   1.000  He
  He126    1.0000 0.29240  0.39094  0.16324  Biso   1.000  He
  Ne126    1.0000 0.31549  0.38366  0.13919  Biso   1.000  Ne
  Ne127    1.0000 0.13675  0.02815  0.09640  Biso   1.000  Ne
  He127    1.0000 0.15002  0.05134  0.11653  Biso   1.000  He
  He128    1.0000 0.18267  0.04840  0.12340  Biso   1.000  He
  Ne128    1.0000 0.19969  0.07010  0.10720  Biso   1.000  Ne
  Ne129    1.0000 0.78873  0.41264  0.00227  Biso   1.000  Ne
  He129    1.0000 0.81657  0.41045  0.01947  Biso   1.000  He
  He130    1.0000 0.83154  0.44002  0.01828  Biso   1.000  He
  Ne130    1.0000 0.86115  0.43991  0.03150  Biso   1.000  Ne
  Ne131    1.0000 0.94504  0.86440  0.23339  Biso   1.000  Ne
  He131    1.0000 0.94762  0.86198  0.26781  Biso   1.000  He
  He132    1.0000 0.94885  0.83192  0.27845  Biso   1.000  He
  Ne132    1.0000 0.94974  0.82740  0.31234  Biso   1.000  Ne
  Ne133    1.0000 0.55756  0.03298  0.47926  Biso   1.000  Ne
  He133    1.0000 0.58711  0.04696  0.48818  Biso   1.000  He
  He134    1.0000 0.61655  0.03145  0.47737  Biso   1.000  He
  Ne134    1.0000 0.64219  0.05175  0.47747  Biso   1.000  Ne
  Ne135    1.0000 0.57010  0.04924  0.57482  Biso   1.000  Ne
  He135    1.0000 0.57317  0.01855  0.58483  Biso   1.000  He
  He136    1.0000 0.56995  0.00951  0.61714  Biso   1.000  He
  Ne136    1.0000 0.57688  0.97872  0.62590  Biso   1.000  Ne
  Ne137    1.0000 0.19617  0.56338  0.37816  Biso   1.000  Ne
  He137    1.0000 0.20809  0.55336  0.40713  Biso   1.000  He
  He138    1.0000 0.18894  0.56672  0.43314  Biso   1.000  He
  Ne138    1.0000 0.19923  0.56178  0.46328  Biso   1.000  Ne
  Ne139    1.0000 0.93235  0.33860  0.60521  Biso   1.000  Ne
  He139    1.0000 0.93090  0.36407  0.63011  Biso   1.000  He
  He140    1.0000 0.95558  0.38648  0.63312  Biso   1.000  He
  Ne140    1.0000 0.95314  0.40866  0.65739  Biso   1.000  Ne
