data_image0
_cell_length_a       46.7118
_cell_length_b       46.5053
_cell_length_c       46.5111
_cell_angle_alpha    90
_cell_angle_beta     90
_cell_angle_gamma    90

_symmetry_space_group_name_H-M    "P 1"
_symmetry_int_tables_number       1

loop_
  _symmetry_equiv_pos_as_xyz
  'x, y, z'

loop_
  _atom_site_label
  _atom_site_occupancy
  _atom_site_fract_x
  _atom_site_fract_y
  _atom_site_fract_z
  _atom_site_thermal_displace_type
  _atom_site_B_iso_or_equiv
  _atom_site_type_symbol
  Ne1      1.0000 0.59961  0.64926  0.18895  Biso   1.000  Ne
  He1      1.0000 0.59925  0.61698  0.20291  Biso   1.000  He
  He2      1.0000 0.62767  0.60095  0.20143  Biso   1.000  He
  Ne2      1.0000 0.63148  0.57400  0.22248  Biso   1.000  Ne
  Ne3      1.0000 0.09419  0.78795  0.08964  Biso   1.000  Ne
  He3      1.0000 0.10336  0.81252  0.11018  Biso   1.000  He
  He4      1.0000 0.08671  0.84183  0.10289  Biso   1.000  He
  Ne4      1.0000 0.09773  0.86705  0.12334  Biso   1.000  Ne
  Ne5      1.0000 0.31539  0.15746  0.98100  Biso   1.000  Ne
  He5      1.0000 0.29227  0.18114  0.97502  Biso   1.000  He
  He6      1.0000 0.30639  0.21139  0.96983  Biso   1.000  He
  Ne6      1.0000 0.28566  0.23702  0.96118  Biso   1.000  Ne
  Ne7      1.0000 0.10770  0.36496  0.38592  Biso   1.000  Ne
  He7      1.0000 0.10340  0.36517  0.35143  Biso   1.000  He
  He8      1.0000 0.10820  0.33647  0.33500  Biso   1.000  He
  Ne8      1.0000 0.09655  0.33677  0.30278  Biso   1.000  Ne
  Ne9      1.0000 0.96062  0.93740  0.92339  Biso   1.000  Ne
  He9      1.0000 0.93227  0.95266  0.93137  Biso   1.000  He
  He10     1.0000 0.93729  0.98527  0.93985  Biso   1.000  He
  Ne10     1.0000 0.94484  0.98888  0.97273  Biso   1.000  Ne
  Ne11     1.0000 0.67244  0.56732  0.12384  Biso   1.000  Ne
  He11     1.0000 0.64144  0.58026  0.12200  Biso   1.000  He
  He12     1.0000 0.63679  0.60454  0.09865  Biso   1.000  He
  Ne12     1.0000 0.60652  0.61730  0.10309  Biso   1.000  Ne
  Ne13     1.0000 0.90218  0.56369  0.39684  Biso   1.000  Ne
  He13     1.0000 0.92544  0.58861  0.39244  Biso   1.000  He
  He14     1.0000 0.92544  0.60246  0.36096  Biso   1.000  He
  Ne14     1.0000 0.94604  0.62836  0.35597  Biso   1.000  Ne
  Ne15     1.0000 0.87366  0.63791  0.60455  Biso   1.000  Ne
  He15     1.0000 0.86757  0.60559  0.61210  Biso   1.000  He
  He16     1.0000 0.83876  0.59235  0.60412  Biso   1.000  He
  Ne16     1.0000 0.84172  0.55927  0.61240  Biso   1.000  Ne
  Ne17     1.0000 0.34464  0.12740  0.67510  Biso   1.000  Ne
  He17     1.0000 0.34538  0.10434  0.65368  Biso   1.000  He
  He18     1.0000 0.32314  0.11177  0.62911  Biso   1.000  He
  Ne18     1.0000 0.31464  0.08803  0.60616  Biso   1.000  Ne
  Ne19     1.0000 0.70466  0.86104  0.60791  Biso   1.000  Ne
  He19     1.0000 0.68032  0.84237  0.59232  Biso   1.000  He
  He20     1.0000 0.65477  0.83534  0.61292  Biso   1.000  He
  Ne20     1.0000 0.62935  0.85641  0.61277  Biso   1.000  Ne
  Ne21     1.0000 0.86937  0.14141  0.14322  Biso   1.000  Ne
  He21     1.0000 0.87535  0.17285  0.13950  Biso   1.000  He
  He22     1.0000 0.86571  0.18490  0.10948  Biso   1.000  He
  Ne22     1.0000 0.87816  0.21618  0.10515  Biso   1.000  Ne
  Ne23     1.0000 0.66043  0.83012  0.44268  Biso   1.000  Ne
  He23     1.0000 0.63610  0.82621  0.41895  Biso   1.000  He
  He24     1.0000 0.62278  0.85535  0.40998  Biso   1.000  He
  Ne24     1.0000 0.59791  0.85337  0.38769  Biso   1.000  Ne
  Ne25     1.0000 0.10518  0.07335  0.90073  Biso   1.000  Ne
  He25     1.0000 0.12818  0.06048  0.91938  Biso   1.000  He
  He26     1.0000 0.14735  0.08312  0.93456  Biso   1.000  He
  Ne26     1.0000 0.17154  0.07104  0.95363  Biso   1.000  Ne
  Ne27     1.0000 0.83120  0.14536  0.25463  Biso   1.000  Ne
  He27     1.0000 0.85433  0.12845  0.23710  Biso   1.000  He
  He28     1.0000 0.85961  0.09803  0.24753  Biso   1.000  He
  Ne28     1.0000 0.88408  0.08023  0.22996  Biso   1.000  Ne
  Ne29     1.0000 0.86715  0.90814  0.08208  Biso   1.000  Ne
  He29     1.0000 0.88629  0.88852  0.10105  Biso   1.000  He
  He30     1.0000 0.91356  0.88111  0.08424  Biso   1.000  He
  Ne30     1.0000 0.93336  0.86259  0.10460  Biso   1.000  Ne
  Ne31     1.0000 0.14611  0.08527  0.82722  Biso   1.000  Ne
  He31     1.0000 0.14554  0.11857  0.83316  Biso   1.000  He
  He32     1.0000 0.16566  0.13680  0.81379  Biso   1.000  He
  Ne32     1.0000 0.16831  0.17264  0.82212  Biso   1.000  Ne
  Ne33     1.0000 0.69969  0.36719  0.08717  Biso   1.000  Ne
  He33     1.0000 0.70798  0.35946  0.11987  Biso   1.000  He
  He34     1.0000 0.69711  0.38009  0.14495  Biso   1.000  He
  Ne34     1.0000 0.70571  0.37345  0.17734  Biso   1.000  Ne
  Ne35     1.0000 0.45589  0.02236  0.47859  Biso   1.000  Ne
  He35     1.0000 0.42525  0.02425  0.47021  Biso   1.000  He
  He36     1.0000 0.41549  0.05857  0.46412  Biso   1.000  He
  Ne36     1.0000 0.38291  0.06243  0.45624  Biso   1.000  Ne
  Ne37     1.0000 0.54620  0.01849  0.60033  Biso   1.000  Ne
  He37     1.0000 0.56231  0.02913  0.57346  Biso   1.000  He
  He38     1.0000 0.56983  0.06094  0.57420  Biso   1.000  He
  Ne38     1.0000 0.58315  0.07496  0.54890  Biso   1.000  Ne
  Ne39     1.0000 0.93602  0.76346  0.09490  Biso   1.000  Ne
  He39     1.0000 0.92780  0.76117  0.12881  Biso   1.000  He
  He40     1.0000 0.92777  0.79153  0.14399  Biso   1.000  He
  Ne40     1.0000 0.92192  0.79266  0.17877  Biso   1.000  Ne
  Ne41     1.0000 0.34425  0.41535  0.10635  Biso   1.000  Ne
  He41     1.0000 0.35196  0.38360  0.11223  Biso   1.000  He
  He42     1.0000 0.32497  0.36399  0.11570  Biso   1.000  He
  Ne42     1.0000 0.33163  0.33235  0.12107  Biso   1.000  Ne
  Ne43     1.0000 0.31025  0.63868  0.66867  Biso   1.000  Ne
  He43     1.0000 0.29480  0.62694  0.69549  Biso   1.000  He
  He44     1.0000 0.31508  0.61544  0.71769  Biso   1.000  He
  Ne44     1.0000 0.29848  0.60145  0.74312  Biso   1.000  Ne
  Ne45     1.0000 0.40717  0.11726  0.60418  Biso   1.000  Ne
  He45     1.0000 0.43375  0.09860  0.60996  Biso   1.000  He
  He46     1.0000 0.44655  0.08180  0.58072  Biso   1.000  He
  Ne46     1.0000 0.47209  0.05936  0.58617  Biso   1.000  Ne
  Ne47     1.0000 0.88220  0.05351  0.12157  Biso   1.000  Ne
  He47     1.0000 0.86354  0.06901  0.09874  Biso   1.000  He
  He48     1.0000 0.83433  0.07630  0.10913  Biso   1.000  He
  Ne48     1.0000 0.81595  0.09262  0.08942  Biso   1.000  Ne
  Ne49     1.0000 0.17112  0.86961  0.86904  Biso   1.000  Ne
  He49     1.0000 0.14154  0.87908  0.85992  Biso   1.000  He
  He50     1.0000 0.14122  0.90921  0.84389  Biso   1.000  He
  Ne50     1.0000 0.11169  0.92207  0.83770  Biso   1.000  Ne
  Ne51     1.0000 0.10571  0.61342  0.68847  Biso   1.000  Ne
  He51     1.0000 0.11251  0.64276  0.67676  Biso   1.000  He
  He52     1.0000 0.09411  0.65143  0.65063  Biso   1.000  He
  Ne52     1.0000 0.10157  0.68275  0.63814  Biso   1.000  Ne
  Ne53     1.0000 0.23733  0.59672  0.41064  Biso   1.000  Ne
  He53     1.0000 0.22085  0.58733  0.38226  Biso   1.000  He
  He54     1.0000 0.18870  0.57926  0.38764  Biso   1.000  He
  Ne54     1.0000 0.17388  0.57089  0.36037  Biso   1.000  Ne
  Ne55     1.0000 0.44258  0.69523  0.92838  Biso   1.000  Ne
  He55     1.0000 0.44622  0.67157  0.94932  Biso   1.000  He
  He56     1.0000 0.43777  0.64386  0.93665  Biso   1.000  He
  Ne56     1.0000 0.44193  0.61664  0.95800  Biso   1.000  Ne
  Ne57     1.0000 0.64905  0.65072  0.85952  Biso   1.000  Ne
  He57     1.0000 0.63362  0.62372  0.87341  Biso   1.000  He
  He58     1.0000 0.60469  0.61700  0.86387  Biso   1.000  He
  Ne58     1.0000 0.58829  0.59554  0.87844  Biso   1.000  Ne
  Ne59     1.0000 0.60861  0.16114  0.40164  Biso   1.000  Ne
  He59     1.0000 0.59989  0.16216  0.37004  Biso   1.000  He
  He60     1.0000 0.61955  0.14330  0.34908  Biso   1.000  He
  Ne60     1.0000 0.60871  0.13987  0.31866  Biso   1.000  Ne
  Ne61     1.0000 0.25031  0.11265  0.10211  Biso   1.000  Ne
  He61     1.0000 0.23142  0.08432  0.10681  Biso   1.000  He
  He62     1.0000 0.19991  0.09108  0.11123  Biso   1.000  He
  Ne62     1.0000 0.18548  0.06903  0.12796  Biso   1.000  Ne
  Ne63     1.0000 0.42984  0.43158  0.08069  Biso   1.000  Ne
  He63     1.0000 0.43683  0.40575  0.10422  Biso   1.000  He
  He64     1.0000 0.43101  0.41289  0.13834  Biso   1.000  He
  Ne64     1.0000 0.43668  0.38535  0.15757  Biso   1.000  Ne
  Ne65     1.0000 0.43615  0.18489  0.34953  Biso   1.000  Ne
  He65     1.0000 0.43437  0.18510  0.38378  Biso   1.000  He
  He66     1.0000 0.42690  0.15492  0.39862  Biso   1.000  He
  Ne66     1.0000 0.42054  0.15543  0.43177  Biso   1.000  Ne
  Ne67     1.0000 0.62121  0.10036  0.63931  Biso   1.000  Ne
  He67     1.0000 0.64122  0.07257  0.64040  Biso   1.000  He
  He68     1.0000 0.64140  0.05583  0.61034  Biso   1.000  He
  Ne68     1.0000 0.66355  0.06434  0.58871  Biso   1.000  Ne
  Ne69     1.0000 0.95081  0.91790  0.84710  Biso   1.000  Ne
  He69     1.0000 0.92971  0.89534  0.83791  Biso   1.000  He
  He70     1.0000 0.93105  0.86863  0.85503  Biso   1.000  He
  Ne70     1.0000 0.90587  0.84946  0.84996  Biso   1.000  Ne
  Ne71     1.0000 0.44721  0.61821  0.08876  Biso   1.000  Ne
  He71     1.0000 0.43385  0.59274  0.09947  Biso   1.000  He
  He72     1.0000 0.39976  0.59816  0.10279  Biso   1.000  He
  Ne72     1.0000 0.38148  0.56986  0.11319  Biso   1.000  Ne
  Ne73     1.0000 0.83727  0.81628  0.10272  Biso   1.000  Ne
  He73     1.0000 0.80548  0.80724  0.10272  Biso   1.000  He
  He74     1.0000 0.79795  0.77718  0.11413  Biso   1.000  He
  Ne74     1.0000 0.76682  0.77347  0.12092  Biso   1.000  Ne
  Ne75     1.0000 0.44708  0.67755  0.16344  Biso   1.000  Ne
  He75     1.0000 0.43131  0.68297  0.13610  Biso   1.000  He
  He76     1.0000 0.39771  0.68884  0.14078  Biso   1.000  He
  Ne76     1.0000 0.38047  0.69418  0.11315  Biso   1.000  Ne
  Ne77     1.0000 0.44213  0.95675  0.55597  Biso   1.000  Ne
  He77     1.0000 0.43446  0.94107  0.58488  Biso   1.000  He
  He78     1.0000 0.45999  0.92826  0.60027  Biso   1.000  He
  Ne78     1.0000 0.45119  0.91335  0.62809  Biso   1.000  Ne
  Ne79     1.0000 0.59424  0.36883  0.07978  Biso   1.000  Ne
  He79     1.0000 0.60214  0.33684  0.09272  Biso   1.000  He
  He80     1.0000 0.61645  0.31828  0.07336  Biso   1.000  He
  Ne80     1.0000 0.62823  0.29210  0.09185  Biso   1.000  Ne
  Ne81     1.0000 0.83562  0.06467  0.87405  Biso   1.000  Ne
  He81     1.0000 0.86193  0.08044  0.85912  Biso   1.000  He
  He82     1.0000 0.88864  0.08489  0.87848  Biso   1.000  He
  Ne82     1.0000 0.91365  0.09837  0.86027  Biso   1.000  Ne
  Ne83     1.0000 0.07825  0.92112  0.92139  Biso   1.000  Ne
  He83     1.0000 0.10917  0.91917  0.92748  Biso   1.000  He
  He84     1.0000 0.11688  0.92322  0.96041  Biso   1.000  He
  Ne84     1.0000 0.15060  0.92567  0.96842  Biso   1.000  Ne
  Ne85     1.0000 0.02269  0.01747  0.94157  Biso   1.000  Ne
  He85     1.0000 0.05077  0.00163  0.94486  Biso   1.000  He
  He86     1.0000 0.06618  0.01290  0.97250  Biso   1.000  He
  Ne86     1.0000 0.09227  0.99472  0.98100  Biso   1.000  Ne
  Ne87     1.0000 0.37985  0.89045  0.46139  Biso   1.000  Ne
  He87     1.0000 0.40481  0.90439  0.44892  Biso   1.000  He
  He88     1.0000 0.43467  0.89020  0.45341  Biso   1.000  He
  Ne88     1.0000 0.46125  0.90479  0.43819  Biso   1.000  Ne
  Ne89     1.0000 0.96812  0.59574  0.55678  Biso   1.000  Ne
  He89     1.0000 0.96764  0.58720  0.59047  Biso   1.000  He
  He90     1.0000 0.94388  0.56641  0.60349  Biso   1.000  He
  Ne90     1.0000 0.95009  0.55972  0.63509  Biso   1.000  Ne
  Ne91     1.0000 0.17220  0.89022  0.12729  Biso   1.000  Ne
  He91     1.0000 0.20410  0.89129  0.13088  Biso   1.000  He
  He92     1.0000 0.21930  0.92014  0.13510  Biso   1.000  He
  Ne92     1.0000 0.25180  0.91892  0.13803  Biso   1.000  Ne
  Ne93     1.0000 0.25577  0.91885  0.94693  Biso   1.000  Ne
  He93     1.0000 0.22853  0.90126  0.94393  Biso   1.000  He
  He94     1.0000 0.23163  0.86925  0.94736  Biso   1.000  He
  Ne94     1.0000 0.20321  0.85051  0.94377  Biso   1.000  Ne
  Ne95     1.0000 0.63335  0.56175  0.95665  Biso   1.000  Ne
  He95     1.0000 0.65936  0.56393  0.93576  Biso   1.000  He
  He96     1.0000 0.68251  0.58871  0.94178  Biso   1.000  He
  Ne96     1.0000 0.71124  0.58241  0.92539  Biso   1.000  Ne
  Ne97     1.0000 0.57803  0.06584  0.40328  Biso   1.000  Ne
  He97     1.0000 0.57852  0.05808  0.43902  Biso   1.000  He
  He98     1.0000 0.60349  0.03430  0.44739  Biso   1.000  He
  Ne98     1.0000 0.61153  0.03597  0.47730  Biso   1.000  Ne
  Ne99     1.0000 0.19457  0.58191  0.61598  Biso   1.000  Ne
  He99     1.0000 0.20157  0.57559  0.64512  Biso   1.000  He
  He100    1.0000 0.19597  0.60175  0.66013  Biso   1.000  He
  Ne100    1.0000 0.20416  0.59989  0.69105  Biso   1.000  Ne
