data_image0
_cell_length_a       46.8044
_cell_length_b       46.7827
_cell_length_c       46.6103
_cell_angle_alpha    90
_cell_angle_beta     90
_cell_angle_gamma    90

_symmetry_space_group_name_H-M    "P 1"
_symmetry_int_tables_number       1

loop_
  _symmetry_equiv_pos_as_xyz
  'x, y, z'

loop_
  _atom_site_label
  _atom_site_occupancy
  _atom_site_fract_x
  _atom_site_fract_y
  _atom_site_fract_z
  _atom_site_thermal_displace_type
  _atom_site_B_iso_or_equiv
  _atom_site_type_symbol
  Ne1      1.0000 0.66679  0.04627  0.42454  Biso   1.000  Ne
  He1      1.0000 0.69156  0.05405  0.40278  Biso   1.000  He
  He2      1.0000 0.68287  0.05562  0.37085  Biso   1.000  He
  Ne2      1.0000 0.70436  0.05952  0.35016  Biso   1.000  Ne
  Ne3      1.0000 0.57083  0.37569  0.13806  Biso   1.000  Ne
  He3      1.0000 0.58093  0.37160  0.17181  Biso   1.000  He
  He4      1.0000 0.59611  0.34519  0.18193  Biso   1.000  He
  Ne4      1.0000 0.60239  0.34531  0.21387  Biso   1.000  Ne
  Ne5      1.0000 0.59611  0.11961  0.66608  Biso   1.000  Ne
  He5      1.0000 0.59231  0.10012  0.64058  Biso   1.000  He
  He6      1.0000 0.60839  0.10667  0.61475  Biso   1.000  He
  Ne6      1.0000 0.60329  0.08794  0.58849  Biso   1.000  Ne
  Ne7      1.0000 0.47441  0.56108  0.95973  Biso   1.000  Ne
  He7      1.0000 0.44590  0.57239  0.94934  Biso   1.000  He
  He8      1.0000 0.45190  0.60481  0.94119  Biso   1.000  He
  Ne8      1.0000 0.42832  0.62271  0.93247  Biso   1.000  Ne
  Ne9      1.0000 0.49284  0.04094  0.58580  Biso   1.000  Ne
  He9      1.0000 0.47241  0.06930  0.58692  Biso   1.000  He
  He10     1.0000 0.45030  0.06981  0.61164  Biso   1.000  He
  Ne10     1.0000 0.43797  0.09799  0.62218  Biso   1.000  Ne
  Ne11     1.0000 0.87712  0.12280  0.16958  Biso   1.000  Ne
  He11     1.0000 0.86032  0.09969  0.15828  Biso   1.000  He
  He12     1.0000 0.84513  0.08051  0.18122  Biso   1.000  He
  Ne12     1.0000 0.82795  0.05290  0.17107  Biso   1.000  Ne
  Ne13     1.0000 0.62814  0.90667  0.67531  Biso   1.000  Ne
  He13     1.0000 0.61028  0.89879  0.64769  Biso   1.000  He
  He14     1.0000 0.61833  0.91343  0.62024  Biso   1.000  He
  Ne14     1.0000 0.59733  0.90275  0.59684  Biso   1.000  Ne
  Ne15     1.0000 0.39490  0.90744  0.65372  Biso   1.000  Ne
  He15     1.0000 0.41046  0.88351  0.63775  Biso   1.000  He
  He16     1.0000 0.43421  0.86665  0.65276  Biso   1.000  He
  Ne16     1.0000 0.44577  0.84180  0.63314  Biso   1.000  Ne
  Ne17     1.0000 0.41246  0.08851  0.44475  Biso   1.000  Ne
  He17     1.0000 0.43010  0.08668  0.41670  Biso   1.000  He
  He18     1.0000 0.41400  0.10586  0.39439  Biso   1.000  He
  Ne18     1.0000 0.41996  0.09818  0.36139  Biso   1.000  Ne
  Ne19     1.0000 0.13807  0.68625  0.43528  Biso   1.000  Ne
  He19     1.0000 0.14021  0.65531  0.44703  Biso   1.000  He
  He20     1.0000 0.13624  0.63180  0.42407  Biso   1.000  He
  Ne20     1.0000 0.14068  0.60134  0.43759  Biso   1.000  Ne
  Ne21     1.0000 0.92765  0.61854  0.61027  Biso   1.000  Ne
  He21     1.0000 0.94344  0.59048  0.60093  Biso   1.000  He
  He22     1.0000 0.92789  0.57294  0.57694  Biso   1.000  He
  Ne22     1.0000 0.94266  0.54438  0.57168  Biso   1.000  Ne
  Ne23     1.0000 0.70853  0.99100  0.87121  Biso   1.000  Ne
  He23     1.0000 0.68926  0.97175  0.85076  Biso   1.000  He
  He24     1.0000 0.69341  0.97719  0.81893  Biso   1.000  He
  Ne24     1.0000 0.67163  0.96180  0.79675  Biso   1.000  Ne
  Ne25     1.0000 0.43791  0.44383  0.06455  Biso   1.000  Ne
  He25     1.0000 0.42624  0.43457  0.09459  Biso   1.000  He
  He26     1.0000 0.40077  0.41285  0.09367  Biso   1.000  He
  Ne26     1.0000 0.39067  0.40524  0.12417  Biso   1.000  Ne
  Ne27     1.0000 0.41068  0.67419  0.12032  Biso   1.000  Ne
  He27     1.0000 0.43085  0.64929  0.12878  Biso   1.000  He
  He28     1.0000 0.43311  0.62334  0.10656  Biso   1.000  He
  Ne28     1.0000 0.45027  0.59621  0.11858  Biso   1.000  Ne
  Ne29     1.0000 0.08729  0.91306  0.00602  Biso   1.000  Ne
  He29     1.0000 0.09389  0.94436  0.99046  Biso   1.000  He
  He30     1.0000 0.09245  0.96867  0.00790  Biso   1.000  He
  Ne30     1.0000 0.09660  0.99327  0.98554  Biso   1.000  Ne
  Ne31     1.0000 0.28771  0.89158  0.47830  Biso   1.000  Ne
  He31     1.0000 0.31849  0.88098  0.47798  Biso   1.000  He
  He32     1.0000 0.32013  0.84971  0.47476  Biso   1.000  He
  Ne32     1.0000 0.34925  0.83420  0.47945  Biso   1.000  Ne
  Ne33     1.0000 0.45485  0.31598  0.89678  Biso   1.000  Ne
  He33     1.0000 0.43982  0.33678  0.91953  Biso   1.000  He
  He34     1.0000 0.43130  0.36678  0.90880  Biso   1.000  He
  Ne34     1.0000 0.41967  0.38778  0.92889  Biso   1.000  Ne
  Ne35     1.0000 0.14031  0.87312  0.18808  Biso   1.000  Ne
  He35     1.0000 0.14941  0.89303  0.16437  Biso   1.000  He
  He36     1.0000 0.13477  0.88329  0.13504  Biso   1.000  He
  Ne36     1.0000 0.14788  0.90231  0.10992  Biso   1.000  Ne
  Ne37     1.0000 0.92955  0.91693  0.06291  Biso   1.000  Ne
  He37     1.0000 0.94355  0.88966  0.07811  Biso   1.000  He
  He38     1.0000 0.92391  0.86760  0.09449  Biso   1.000  He
  Ne38     1.0000 0.92538  0.86974  0.12802  Biso   1.000  Ne
  Ne39     1.0000 0.11216  0.61914  0.61769  Biso   1.000  Ne
  He39     1.0000 0.14362  0.62193  0.60816  Biso   1.000  He
  He40     1.0000 0.16359  0.59743  0.61670  Biso   1.000  He
  Ne40     1.0000 0.19427  0.59790  0.60750  Biso   1.000  Ne
