data_image0
_cell_length_a       46.9463
_cell_length_b       47.6759
_cell_length_c       46.5202
_cell_angle_alpha    90
_cell_angle_beta     90
_cell_angle_gamma    90

_symmetry_space_group_name_H-M    "P 1"
_symmetry_int_tables_number       1

loop_
  _symmetry_equiv_pos_as_xyz
  'x, y, z'

loop_
  _atom_site_label
  _atom_site_occupancy
  _atom_site_fract_x
  _atom_site_fract_y
  _atom_site_fract_z
  _atom_site_thermal_displace_type
  _atom_site_B_iso_or_equiv
  _atom_site_type_symbol
  Ne1      1.0000 0.41351  0.80968  0.31509  Biso   1.000  Ne
  He1      1.0000 0.42511  0.82387  0.34471  Biso   1.000  He
  He2      1.0000 0.40870  0.81288  0.37457  Biso   1.000  He
  Ne2      1.0000 0.42043  0.82486  0.40314  Biso   1.000  Ne
  Ne3      1.0000 0.08463  0.41261  0.73544  Biso   1.000  Ne
  He3      1.0000 0.09096  0.38112  0.73670  Biso   1.000  He
  He4      1.0000 0.09257  0.37021  0.70696  Biso   1.000  He
  Ne4      1.0000 0.09485  0.33696  0.70700  Biso   1.000  Ne
  Ne5      1.0000 0.91990  0.69765  0.05905  Biso   1.000  Ne
  He5      1.0000 0.94123  0.67525  0.04634  Biso   1.000  He
  He6      1.0000 0.96627  0.68686  0.03109  Biso   1.000  He
  Ne6      1.0000 0.98312  0.66385  0.01765  Biso   1.000  Ne
  Ne7      1.0000 0.62966  0.56130  0.24695  Biso   1.000  Ne
  He7      1.0000 0.60985  0.58539  0.23703  Biso   1.000  He
  He8      1.0000 0.62398  0.60603  0.21159  Biso   1.000  He
  Ne8      1.0000 0.60236  0.63337  0.20592  Biso   1.000  Ne
  Ne9      1.0000 0.87182  0.39570  0.61125  Biso   1.000  Ne
  He9      1.0000 0.86387  0.40162  0.64255  Biso   1.000  He
  He10     1.0000 0.89186  0.40088  0.66324  Biso   1.000  He
  Ne10     1.0000 0.88646  0.40824  0.69542  Biso   1.000  Ne
  Ne11     1.0000 0.66072  0.88537  0.60667  Biso   1.000  Ne
  He11     1.0000 0.63284  0.86819  0.61887  Biso   1.000  He
  He12     1.0000 0.60616  0.87945  0.60458  Biso   1.000  He
  Ne12     1.0000 0.57741  0.86624  0.61176  Biso   1.000  Ne
  Ne13     1.0000 0.93099  0.70889  0.94766  Biso   1.000  Ne
  He13     1.0000 0.91537  0.73729  0.94345  Biso   1.000  He
  He14     1.0000 0.91767  0.74889  0.91235  Biso   1.000  He
  Ne14     1.0000 0.90819  0.77950  0.91114  Biso   1.000  Ne
  Ne15     1.0000 0.78696  0.17403  0.43015  Biso   1.000  Ne
  He15     1.0000 0.79705  0.17414  0.39831  Biso   1.000  He
  He16     1.0000 0.82281  0.15897  0.39309  Biso   1.000  He
  Ne16     1.0000 0.82933  0.14984  0.36302  Biso   1.000  Ne
  Ne17     1.0000 0.91260  0.16603  0.89673  Biso   1.000  Ne
  He17     1.0000 0.93612  0.15756  0.91649  Biso   1.000  He
  He18     1.0000 0.92832  0.13039  0.93493  Biso   1.000  He
  Ne18     1.0000 0.95070  0.12149  0.95912  Biso   1.000  Ne
  Ne19     1.0000 0.08858  0.49118  0.48190  Biso   1.000  Ne
  He19     1.0000 0.07218  0.51764  0.47495  Biso   1.000  He
  He20     1.0000 0.08654  0.53743  0.45111  Biso   1.000  He
  Ne20     1.0000 0.07787  0.56958  0.45282  Biso   1.000  Ne
  Ne21     1.0000 0.15322  0.57147  0.67557  Biso   1.000  Ne
  He21     1.0000 0.12456  0.56154  0.68666  Biso   1.000  He
  He22     1.0000 0.10826  0.58065  0.70784  Biso   1.000  He
  Ne22     1.0000 0.08309  0.56165  0.72255  Biso   1.000  Ne
  Ne23     1.0000 0.58743  0.63689  0.10370  Biso   1.000  Ne
  He23     1.0000 0.58965  0.60337  0.10780  Biso   1.000  He
  He24     1.0000 0.61129  0.59118  0.13038  Biso   1.000  He
  Ne24     1.0000 0.60709  0.55956  0.13722  Biso   1.000  Ne
  Ne25     1.0000 0.41400  0.03779  0.48200  Biso   1.000  Ne
  He25     1.0000 0.44545  0.02788  0.48904  Biso   1.000  He
  He26     1.0000 0.44837  0.00026  0.50882  Biso   1.000  He
  Ne26     1.0000 0.47823  0.99212  0.51836  Biso   1.000  Ne
  Ne27     1.0000 0.37332  0.54523  0.13026  Biso   1.000  Ne
  He27     1.0000 0.34569  0.54744  0.15057  Biso   1.000  He
  He28     1.0000 0.35385  0.55192  0.18116  Biso   1.000  He
  Ne28     1.0000 0.32702  0.56067  0.19961  Biso   1.000  Ne
  Ne29     1.0000 0.43269  0.02618  0.59481  Biso   1.000  Ne
  He29     1.0000 0.46125  0.04310  0.60115  Biso   1.000  He
  He30     1.0000 0.47693  0.05255  0.57280  Biso   1.000  He
  Ne30     1.0000 0.50134  0.07151  0.57588  Biso   1.000  Ne
  Ne31     1.0000 0.66897  0.04305  0.62541  Biso   1.000  Ne
  He31     1.0000 0.68781  0.06928  0.62715  Biso   1.000  He
  He32     1.0000 0.70690  0.07452  0.60100  Biso   1.000  He
  Ne32     1.0000 0.72806  0.10030  0.60456  Biso   1.000  Ne
  Ne33     1.0000 0.59543  0.92746  0.45564  Biso   1.000  Ne
  He33     1.0000 0.56124  0.92384  0.46020  Biso   1.000  He
  He34     1.0000 0.54289  0.94793  0.44696  Biso   1.000  He
  Ne34     1.0000 0.50910  0.94283  0.44789  Biso   1.000  Ne
  Ne35     1.0000 0.41724  0.37486  0.10078  Biso   1.000  Ne
  He35     1.0000 0.38777  0.39112  0.10445  Biso   1.000  He
  He36     1.0000 0.36326  0.36980  0.10515  Biso   1.000  He
  Ne36     1.0000 0.33474  0.38340  0.10914  Biso   1.000  Ne
  Ne37     1.0000 0.40420  0.31034  0.17065  Biso   1.000  Ne
  He37     1.0000 0.39317  0.31121  0.20292  Biso   1.000  He
  He38     1.0000 0.40168  0.34303  0.21534  Biso   1.000  He
  Ne38     1.0000 0.39331  0.35050  0.24533  Biso   1.000  Ne
  Ne39     1.0000 0.34857  0.40533  0.88771  Biso   1.000  Ne
  He39     1.0000 0.32297  0.42053  0.90602  Biso   1.000  He
  He40     1.0000 0.30227  0.39765  0.92065  Biso   1.000  He
  Ne40     1.0000 0.27710  0.41116  0.93766  Biso   1.000  Ne
  Ne41     1.0000 0.84306  0.38418  0.43505  Biso   1.000  Ne
  He41     1.0000 0.84422  0.39615  0.40465  Biso   1.000  He
  He42     1.0000 0.81653  0.39230  0.38494  Biso   1.000  He
  Ne42     1.0000 0.82115  0.40269  0.35324  Biso   1.000  Ne
  Ne43     1.0000 0.20815  0.43026  0.98088  Biso   1.000  Ne
  He43     1.0000 0.20303  0.45002  0.00679  Biso   1.000  He
  He44     1.0000 0.22767  0.47212  0.01042  Biso   1.000  He
  Ne44     1.0000 0.21985  0.49807  0.03058  Biso   1.000  Ne
  Ne45     1.0000 0.07191  0.02334  0.08044  Biso   1.000  Ne
  He45     1.0000 0.09129  0.05244  0.07483  Biso   1.000  He
  He46     1.0000 0.12074  0.04885  0.08982  Biso   1.000  He
  Ne46     1.0000 0.13543  0.07701  0.09230  Biso   1.000  Ne
  Ne47     1.0000 0.63748  0.58130  0.87025  Biso   1.000  Ne
  He47     1.0000 0.64777  0.56574  0.89913  Biso   1.000  He
  He48     1.0000 0.62349  0.56350  0.92252  Biso   1.000  He
  Ne48     1.0000 0.62987  0.54939  0.95090  Biso   1.000  Ne
  Ne49     1.0000 0.71498  0.57839  0.10972  Biso   1.000  Ne
  He49     1.0000 0.69114  0.60254  0.10276  Biso   1.000  He
  He50     1.0000 0.69742  0.63538  0.10992  Biso   1.000  He
  Ne50     1.0000 0.67564  0.65673  0.09709  Biso   1.000  Ne
  Ne51     1.0000 0.08606  0.10569  0.96208  Biso   1.000  Ne
  He51     1.0000 0.10660  0.08387  0.96744  Biso   1.000  He
  He52     1.0000 0.09712  0.05443  0.95827  Biso   1.000  He
  Ne52     1.0000 0.11248  0.02898  0.97336  Biso   1.000  Ne
  Ne53     1.0000 0.14657  0.54770  0.38358  Biso   1.000  Ne
  He53     1.0000 0.17710  0.55637  0.37203  Biso   1.000  He
  He54     1.0000 0.19941  0.55754  0.39634  Biso   1.000  He
  Ne54     1.0000 0.22722  0.56925  0.38307  Biso   1.000  Ne
  Ne55     1.0000 0.44575  0.15592  0.60629  Biso   1.000  Ne
  He55     1.0000 0.44786  0.12985  0.62896  Biso   1.000  He
  He56     1.0000 0.41760  0.11797  0.63393  Biso   1.000  He
  Ne56     1.0000 0.41983  0.09079  0.65240  Biso   1.000  Ne
  Ne57     1.0000 0.89575  0.65601  0.34837  Biso   1.000  Ne
  He57     1.0000 0.88533  0.62221  0.34783  Biso   1.000  He
  He58     1.0000 0.90929  0.60174  0.35135  Biso   1.000  He
  Ne58     1.0000 0.89847  0.57231  0.35170  Biso   1.000  Ne
  Ne59     1.0000 0.61298  0.21642  0.64602  Biso   1.000  Ne
  He59     1.0000 0.63772  0.19796  0.63370  Biso   1.000  He
  He60     1.0000 0.62785  0.16956  0.61685  Biso   1.000  He
  Ne60     1.0000 0.65466  0.15355  0.60163  Biso   1.000  Ne
  Ne61     1.0000 0.43057  0.54579  0.22180  Biso   1.000  Ne
  He61     1.0000 0.43407  0.57864  0.22447  Biso   1.000  He
  He62     1.0000 0.43090  0.59745  0.19525  Biso   1.000  He
  Ne62     1.0000 0.43858  0.62912  0.20244  Biso   1.000  Ne
  Ne63     1.0000 0.90764  0.07203  0.22897  Biso   1.000  Ne
  He63     1.0000 0.87483  0.07128  0.23090  Biso   1.000  He
  He64     1.0000 0.85797  0.07865  0.20223  Biso   1.000  He
  Ne64     1.0000 0.82498  0.08666  0.20524  Biso   1.000  Ne
  Ne65     1.0000 0.60121  0.90886  0.37675  Biso   1.000  Ne
  He65     1.0000 0.61932  0.88742  0.36075  Biso   1.000  He
  He66     1.0000 0.62639  0.89314  0.32821  Biso   1.000  He
  Ne66     1.0000 0.60382  0.87979  0.30529  Biso   1.000  Ne
  Ne67     1.0000 0.67068  0.06202  0.37598  Biso   1.000  Ne
  He67     1.0000 0.67893  0.09200  0.38586  Biso   1.000  He
  He68     1.0000 0.69872  0.08695  0.41054  Biso   1.000  He
  Ne68     1.0000 0.70848  0.11586  0.42987  Biso   1.000  Ne
  Ne69     1.0000 0.91412  0.26602  0.33228  Biso   1.000  Ne
  He69     1.0000 0.90400  0.28966  0.35239  Biso   1.000  He
  He70     1.0000 0.92364  0.31462  0.35318  Biso   1.000  He
  Ne70     1.0000 0.91524  0.33941  0.37302  Biso   1.000  Ne
  Ne71     1.0000 0.09897  0.07173  0.83824  Biso   1.000  Ne
  He71     1.0000 0.12963  0.06637  0.84666  Biso   1.000  He
  He72     1.0000 0.13481  0.06023  0.87898  Biso   1.000  He
  Ne72     1.0000 0.16667  0.05652  0.88890  Biso   1.000  Ne
  Ne73     1.0000 0.50165  0.90234  0.54020  Biso   1.000  Ne
  He73     1.0000 0.52834  0.91772  0.53735  Biso   1.000  He
  He74     1.0000 0.53498  0.93638  0.56439  Biso   1.000  He
  Ne74     1.0000 0.56427  0.95541  0.56222  Biso   1.000  Ne
  Ne75     1.0000 0.99297  0.48182  0.59731  Biso   1.000  Ne
  He75     1.0000 0.98347  0.45116  0.60395  Biso   1.000  He
  He76     1.0000 0.95142  0.44304  0.60241  Biso   1.000  He
  Ne76     1.0000 0.94451  0.41184  0.61179  Biso   1.000  Ne
  Ne77     1.0000 0.15909  0.40705  0.70337  Biso   1.000  Ne
  He77     1.0000 0.18778  0.40738  0.68575  Biso   1.000  He
  He78     1.0000 0.18375  0.40095  0.65274  Biso   1.000  He
  Ne78     1.0000 0.21074  0.40877  0.63299  Biso   1.000  Ne
  Ne79     1.0000 0.53815  0.43204  0.94550  Biso   1.000  Ne
  He79     1.0000 0.56040  0.43359  0.92293  Biso   1.000  He
  He80     1.0000 0.57215  0.40378  0.91624  Biso   1.000  He
  Ne80     1.0000 0.59636  0.41020  0.89413  Biso   1.000  Ne
  Ne81     1.0000 0.35015  0.72686  0.43677  Biso   1.000  Ne
  He81     1.0000 0.38039  0.72728  0.44703  Biso   1.000  He
  He82     1.0000 0.39594  0.75071  0.43288  Biso   1.000  He
  Ne82     1.0000 0.42702  0.75108  0.44226  Biso   1.000  Ne
  Ne83     1.0000 0.07566  0.54124  0.56150  Biso   1.000  Ne
  He83     1.0000 0.07817  0.56712  0.58206  Biso   1.000  He
  He84     1.0000 0.10728  0.58264  0.57885  Biso   1.000  He
  Ne84     1.0000 0.10685  0.61156  0.59533  Biso   1.000  Ne
  Ne85     1.0000 0.93391  0.86627  0.14584  Biso   1.000  Ne
  He85     1.0000 0.93395  0.88132  0.17454  Biso   1.000  He
  He86     1.0000 0.93955  0.86194  0.20173  Biso   1.000  He
  Ne86     1.0000 0.94034  0.87458  0.23400  Biso   1.000  Ne
  Ne87     1.0000 0.80146  0.58246  0.63816  Biso   1.000  Ne
  He87     1.0000 0.81390  0.58342  0.67125  Biso   1.000  He
  He88     1.0000 0.83606  0.56139  0.67975  Biso   1.000  He
  Ne88     1.0000 0.84816  0.56664  0.71077  Biso   1.000  Ne
  Ne89     1.0000 0.09465  0.36543  0.36061  Biso   1.000  Ne
  He89     1.0000 0.10136  0.33828  0.38095  Biso   1.000  He
  He90     1.0000 0.08982  0.31163  0.37135  Biso   1.000  He
  Ne90     1.0000 0.09497  0.28595  0.39284  Biso   1.000  Ne
  Ne91     1.0000 0.50942  0.53326  0.94325  Biso   1.000  Ne
  He91     1.0000 0.53492  0.53447  0.96618  Biso   1.000  He
  He92     1.0000 0.53195  0.55984  0.98750  Biso   1.000  He
  Ne92     1.0000 0.55043  0.56145  0.01234  Biso   1.000  Ne
  Ne93     1.0000 0.95844  0.20662  0.43802  Biso   1.000  Ne
  He93     1.0000 0.92741  0.22101  0.44170  Biso   1.000  He
  He94     1.0000 0.92389  0.25298  0.44260  Biso   1.000  He
  Ne94     1.0000 0.89341  0.26511  0.45160  Biso   1.000  Ne
  Ne95     1.0000 0.27780  0.26975  0.15445  Biso   1.000  Ne
  He95     1.0000 0.29033  0.24100  0.14633  Biso   1.000  He
  He96     1.0000 0.26968  0.21404  0.15276  Biso   1.000  He
  Ne96     1.0000 0.28356  0.18432  0.14321  Biso   1.000  Ne
  Ne97     1.0000 0.31897  0.83820  0.44421  Biso   1.000  Ne
  He97     1.0000 0.34703  0.85205  0.43288  Biso   1.000  He
  He98     1.0000 0.34611  0.88713  0.43367  Biso   1.000  He
  Ne98     1.0000 0.37429  0.90129  0.42386  Biso   1.000  Ne
  Ne99     1.0000 0.59344  0.13679  0.38154  Biso   1.000  Ne
  He99     1.0000 0.59330  0.12397  0.35179  Biso   1.000  He
  He100    1.0000 0.58610  0.09238  0.35006  Biso   1.000  He
  Ne100    1.0000 0.59004  0.08095  0.31849  Biso   1.000  Ne
  Ne101    1.0000 0.55478  0.48333  0.06008  Biso   1.000  Ne
  He101    1.0000 0.56796  0.45382  0.06101  Biso   1.000  He
  He102    1.0000 0.54705  0.42858  0.05565  Biso   1.000  He
  Ne102    1.0000 0.55580  0.39785  0.06329  Biso   1.000  Ne
  Ne103    1.0000 0.06618  0.43029  0.43548  Biso   1.000  Ne
  He103    1.0000 0.09475  0.41690  0.43111  Biso   1.000  He
  He104    1.0000 0.10542  0.39704  0.45454  Biso   1.000  He
  Ne104    1.0000 0.13612  0.38481  0.45028  Biso   1.000  Ne
  Ne105    1.0000 0.80851  0.88080  0.21835  Biso   1.000  Ne
  He105    1.0000 0.81556  0.90585  0.24122  Biso   1.000  He
  He106    1.0000 0.84484  0.89620  0.25912  Biso   1.000  He
  Ne106    1.0000 0.85130  0.91263  0.28796  Biso   1.000  Ne
  Ne107    1.0000 0.77833  0.37932  0.62196  Biso   1.000  Ne
  He107    1.0000 0.76996  0.36891  0.65251  Biso   1.000  He
  He108    1.0000 0.79309  0.37610  0.67551  Biso   1.000  He
  Ne108    1.0000 0.78198  0.36956  0.70622  Biso   1.000  Ne
  Ne109    1.0000 0.43357  0.35994  0.95872  Biso   1.000  Ne
  He109    1.0000 0.42610  0.38708  0.93983  Biso   1.000  He
  He110    1.0000 0.45259  0.39643  0.92140  Biso   1.000  He
  Ne110    1.0000 0.44648  0.42130  0.90210  Biso   1.000  Ne
  Ne111    1.0000 0.09223  0.41920  0.58490  Biso   1.000  Ne
  He111    1.0000 0.11871  0.40018  0.59408  Biso   1.000  He
  He112    1.0000 0.11130  0.36819  0.59340  Biso   1.000  He
  Ne112    1.0000 0.13550  0.34596  0.59692  Biso   1.000  Ne
  Ne113    1.0000 0.39660  0.41347  0.30585  Biso   1.000  Ne
  He113    1.0000 0.36445  0.41982  0.31623  Biso   1.000  He
  He114    1.0000 0.34986  0.39208  0.32732  Biso   1.000  He
  Ne114    1.0000 0.31714  0.39457  0.33359  Biso   1.000  Ne
  Ne115    1.0000 0.93584  0.34281  0.46793  Biso   1.000  Ne
  He115    1.0000 0.95048  0.37276  0.46873  Biso   1.000  He
  He116    1.0000 0.94950  0.39283  0.44183  Biso   1.000  He
  Ne116    1.0000 0.96403  0.42116  0.44996  Biso   1.000  Ne
  Ne117    1.0000 0.57878  0.02506  0.43351  Biso   1.000  Ne
  He117    1.0000 0.55495  0.02916  0.45455  Biso   1.000  He
  He118    1.0000 0.55540  0.05664  0.46987  Biso   1.000  He
  Ne118    1.0000 0.53296  0.05726  0.49416  Biso   1.000  Ne
  Ne119    1.0000 0.54964  0.01280  0.61748  Biso   1.000  Ne
  He119    1.0000 0.56558  0.03962  0.62466  Biso   1.000  He
  He120    1.0000 0.57405  0.05411  0.59677  Biso   1.000  He
  Ne120    1.0000 0.58855  0.08303  0.60727  Biso   1.000  Ne
  Ne121    1.0000 0.87206  0.64182  0.45026  Biso   1.000  Ne
  He121    1.0000 0.85926  0.61564  0.43668  Biso   1.000  He
  He122    1.0000 0.86938  0.58685  0.44857  Biso   1.000  He
  Ne122    1.0000 0.85302  0.56117  0.43678  Biso   1.000  Ne
  Ne123    1.0000 0.74752  0.91059  0.13149  Biso   1.000  Ne
  He123    1.0000 0.71779  0.90899  0.15048  Biso   1.000  He
  He124    1.0000 0.71746  0.93186  0.17234  Biso   1.000  He
  Ne124    1.0000 0.69147  0.92683  0.19172  Biso   1.000  Ne
  Ne125    1.0000 0.96652  0.03312  0.09354  Biso   1.000  Ne
  He125    1.0000 0.93926  0.02499  0.10752  Biso   1.000  He
  He126    1.0000 0.92664  0.04743  0.12527  Biso   1.000  He
  Ne126    1.0000 0.89567  0.04307  0.13057  Biso   1.000  Ne
  Ne127    1.0000 0.15327  0.07992  0.18904  Biso   1.000  Ne
  He127    1.0000 0.12517  0.06753  0.19549  Biso   1.000  He
  He128    1.0000 0.10079  0.09126  0.19715  Biso   1.000  He
  Ne128    1.0000 0.07402  0.07822  0.20789  Biso   1.000  Ne
  Ne129    1.0000 0.88140  0.58902  0.59588  Biso   1.000  Ne
  He129    1.0000 0.89686  0.58948  0.62665  Biso   1.000  He
  He130    1.0000 0.90946  0.56100  0.63975  Biso   1.000  He
  Ne130    1.0000 0.92331  0.56549  0.66822  Biso   1.000  Ne
  Ne131    1.0000 0.39600  0.56025  0.97893  Biso   1.000  Ne
  He131    1.0000 0.40977  0.58974  0.98150  Biso   1.000  He
  He132    1.0000 0.38906  0.61481  0.97680  Biso   1.000  He
  Ne132    1.0000 0.40335  0.64270  0.96581  Biso   1.000  Ne
  Ne133    1.0000 0.66540  0.89861  0.73370  Biso   1.000  Ne
  He133    1.0000 0.63391  0.89470  0.73642  Biso   1.000  He
  He134    1.0000 0.61871  0.88985  0.70634  Biso   1.000  He
  Ne134    1.0000 0.58650  0.88288  0.70620  Biso   1.000  Ne
  Ne135    1.0000 0.33017  0.80579  0.33451  Biso   1.000  Ne
  He135    1.0000 0.31473  0.78702  0.35722  Biso   1.000  He
  He136    1.0000 0.29188  0.80306  0.37629  Biso   1.000  He
  Ne136    1.0000 0.27816  0.78458  0.40262  Biso   1.000  Ne
  Ne137    1.0000 0.00934  0.12124  0.70225  Biso   1.000  Ne
  He137    1.0000 0.03759  0.10311  0.71129  Biso   1.000  He
  He138    1.0000 0.05758  0.12240  0.73155  Biso   1.000  He
  Ne138    1.0000 0.08393  0.10399  0.74470  Biso   1.000  Ne
  Ne139    1.0000 0.46422  0.41718  0.01932  Biso   1.000  Ne
  He139    1.0000 0.47487  0.44046  0.04342  Biso   1.000  He
  He140    1.0000 0.45488  0.43962  0.07111  Biso   1.000  He
  Ne140    1.0000 0.46817  0.45982  0.09609  Biso   1.000  Ne
