data_image0
_cell_length_a       46.7257
_cell_length_b       46.6582
_cell_length_c       46.6029
_cell_angle_alpha    90
_cell_angle_beta     90
_cell_angle_gamma    90

_symmetry_space_group_name_H-M    "P 1"
_symmetry_int_tables_number       1

loop_
  _symmetry_equiv_pos_as_xyz
  'x, y, z'

loop_
  _atom_site_label
  _atom_site_occupancy
  _atom_site_fract_x
  _atom_site_fract_y
  _atom_site_fract_z
  _atom_site_thermal_displace_type
  _atom_site_B_iso_or_equiv
  _atom_site_type_symbol
  Ne1      1.0000 0.57300  0.59203  0.72055  Biso   1.000  Ne
  He1      1.0000 0.59309  0.59478  0.74414  Biso   1.000  He
  He2      1.0000 0.61080  0.56696  0.74863  Biso   1.000  He
  Ne2      1.0000 0.63318  0.56476  0.77576  Biso   1.000  Ne
  Ne3      1.0000 0.60792  0.52795  0.02779  Biso   1.000  Ne
  He3      1.0000 0.58760  0.50454  0.02067  Biso   1.000  He
  He4      1.0000 0.56929  0.49520  0.04631  Biso   1.000  He
  Ne4      1.0000 0.55115  0.46643  0.03901  Biso   1.000  Ne
  Ne5      1.0000 0.89547  0.04535  0.85145  Biso   1.000  Ne
  He5      1.0000 0.89793  0.07680  0.86021  Biso   1.000  He
  He6      1.0000 0.88504  0.08335  0.89141  Biso   1.000  He
  Ne6      1.0000 0.89678  0.11216  0.90679  Biso   1.000  Ne
  Ne7      1.0000 0.92726  0.33003  0.63227  Biso   1.000  Ne
  He7      1.0000 0.92446  0.30310  0.61220  Biso   1.000  He
  He8      1.0000 0.92725  0.31279  0.58233  Biso   1.000  He
  Ne8      1.0000 0.92572  0.28755  0.56272  Biso   1.000  Ne
  Ne9      1.0000 0.92449  0.58635  0.69779  Biso   1.000  Ne
  He9      1.0000 0.89955  0.60723  0.69684  Biso   1.000  He
  He10     1.0000 0.87304  0.59608  0.67767  Biso   1.000  He
  Ne10     1.0000 0.84755  0.61758  0.67643  Biso   1.000  Ne
  Ne11     1.0000 0.90808  0.56603  0.37736  Biso   1.000  Ne
  He11     1.0000 0.91578  0.54886  0.34932  Biso   1.000  He
  He12     1.0000 0.89943  0.56311  0.31997  Biso   1.000  He
  Ne12     1.0000 0.91085  0.55558  0.28983  Biso   1.000  Ne
  Ne13     1.0000 0.26744  0.09789  0.41108  Biso   1.000  Ne
  He13     1.0000 0.28778  0.10168  0.38445  Biso   1.000  He
  He14     1.0000 0.31721  0.08448  0.38253  Biso   1.000  He
  Ne14     1.0000 0.33513  0.09688  0.36018  Biso   1.000  Ne
  Ne15     1.0000 0.43157  0.17463  0.25292  Biso   1.000  Ne
  He15     1.0000 0.44522  0.18876  0.22354  Biso   1.000  He
  He16     1.0000 0.46578  0.16629  0.20856  Biso   1.000  He
  Ne16     1.0000 0.47639  0.17466  0.17892  Biso   1.000  Ne
  Ne17     1.0000 0.64047  0.56985  0.17961  Biso   1.000  Ne
  He17     1.0000 0.62865  0.58792  0.15496  Biso   1.000  He
  He18     1.0000 0.63979  0.61773  0.15265  Biso   1.000  He
  Ne18     1.0000 0.62263  0.63661  0.12865  Biso   1.000  Ne
  Ne19     1.0000 0.09598  0.50214  0.53962  Biso   1.000  Ne
  He19     1.0000 0.08505  0.48651  0.51129  Biso   1.000  He
  He20     1.0000 0.06126  0.46478  0.51849  Biso   1.000  He
  Ne20     1.0000 0.05594  0.44615  0.49355  Biso   1.000  Ne
  Ne21     1.0000 0.37361  0.09114  0.57020  Biso   1.000  Ne
  He21     1.0000 0.34490  0.07448  0.57857  Biso   1.000  He
  He22     1.0000 0.32313  0.07041  0.55546  Biso   1.000  He
  Ne22     1.0000 0.29509  0.05628  0.56827  Biso   1.000  Ne
  Ne23     1.0000 0.43441  0.90460  0.64318  Biso   1.000  Ne
  He23     1.0000 0.43250  0.87217  0.64039  Biso   1.000  He
  He24     1.0000 0.40244  0.86020  0.63505  Biso   1.000  He
  Ne24     1.0000 0.40147  0.82634  0.63594  Biso   1.000  Ne
  Ne25     1.0000 0.71468  0.89733  0.60669  Biso   1.000  Ne
  He25     1.0000 0.71209  0.87219  0.58548  Biso   1.000  He
  He26     1.0000 0.69525  0.87959  0.55900  Biso   1.000  He
  Ne26     1.0000 0.69591  0.85763  0.53254  Biso   1.000  Ne
  Ne27     1.0000 0.00194  0.18795  0.44655  Biso   1.000  Ne
  He27     1.0000 0.98079  0.20809  0.43110  Biso   1.000  He
  He28     1.0000 0.97988  0.20415  0.39832  Biso   1.000  He
  Ne28     1.0000 0.96102  0.22642  0.38097  Biso   1.000  Ne
  Ne29     1.0000 0.23442  0.90107  0.88379  Biso   1.000  Ne
  He29     1.0000 0.21369  0.90982  0.85900  Biso   1.000  He
  He30     1.0000 0.18050  0.91447  0.86880  Biso   1.000  He
  Ne30     1.0000 0.16351  0.92379  0.84387  Biso   1.000  Ne
  Ne31     1.0000 0.35260  0.40961  0.80113  Biso   1.000  Ne
  He31     1.0000 0.38404  0.40234  0.79010  Biso   1.000  He
  He32     1.0000 0.39127  0.37344  0.78125  Biso   1.000  He
  Ne32     1.0000 0.42232  0.37106  0.77158  Biso   1.000  Ne
  Ne33     1.0000 0.24564  0.18944  0.88045  Biso   1.000  Ne
  He33     1.0000 0.21324  0.18886  0.88033  Biso   1.000  He
  He34     1.0000 0.19899  0.16277  0.89454  Biso   1.000  He
  Ne34     1.0000 0.16719  0.16344  0.88972  Biso   1.000  Ne
  Ne35     1.0000 0.09778  0.40041  0.24022  Biso   1.000  Ne
  He35     1.0000 0.12773  0.39002  0.23426  Biso   1.000  He
  He36     1.0000 0.14462  0.39474  0.26061  Biso   1.000  He
  Ne36     1.0000 0.17570  0.37773  0.25938  Biso   1.000  Ne
  Ne37     1.0000 0.71845  0.56121  0.03494  Biso   1.000  Ne
  He37     1.0000 0.69902  0.58591  0.03245  Biso   1.000  He
  He38     1.0000 0.67212  0.58707  0.05098  Biso   1.000  He
  Ne38     1.0000 0.65319  0.61388  0.04268  Biso   1.000  Ne
  Ne39     1.0000 0.15887  0.59588  0.39690  Biso   1.000  Ne
  He39     1.0000 0.12907  0.59113  0.40124  Biso   1.000  He
  He40     1.0000 0.11109  0.60077  0.37768  Biso   1.000  He
  Ne40     1.0000 0.09261  0.62833  0.38425  Biso   1.000  Ne
  Ne41     1.0000 0.82584  0.38956  0.62436  Biso   1.000  Ne
  He41     1.0000 0.85128  0.40894  0.62437  Biso   1.000  He
  He42     1.0000 0.88238  0.39967  0.62836  Biso   1.000  He
  Ne42     1.0000 0.89489  0.40593  0.65950  Biso   1.000  Ne
  Ne43     1.0000 0.39656  0.42141  0.91398  Biso   1.000  Ne
  He43     1.0000 0.39278  0.38760  0.91564  Biso   1.000  He
  He44     1.0000 0.41925  0.37039  0.90229  Biso   1.000  He
  Ne44     1.0000 0.41368  0.33592  0.90257  Biso   1.000  Ne
  Ne45     1.0000 0.23946  0.57532  0.58423  Biso   1.000  Ne
  He45     1.0000 0.20653  0.56870  0.58320  Biso   1.000  He
  He46     1.0000 0.18818  0.58416  0.56065  Biso   1.000  He
  Ne46     1.0000 0.15638  0.57477  0.56415  Biso   1.000  Ne
  Ne47     1.0000 0.74112  0.11507  0.57269  Biso   1.000  Ne
  He47     1.0000 0.71110  0.12002  0.58601  Biso   1.000  He
  He48     1.0000 0.68647  0.09900  0.58002  Biso   1.000  He
  Ne48     1.0000 0.65931  0.10717  0.59677  Biso   1.000  Ne
  Ne49     1.0000 0.14425  0.73344  0.40222  Biso   1.000  Ne
  He49     1.0000 0.12555  0.71316  0.38709  Biso   1.000  He
  He50     1.0000 0.10450  0.73097  0.37058  Biso   1.000  He
  Ne50     1.0000 0.08115  0.71211  0.35743  Biso   1.000  Ne
  Ne51     1.0000 0.18393  0.29117  0.57143  Biso   1.000  Ne
  He51     1.0000 0.15154  0.29781  0.57763  Biso   1.000  He
  He52     1.0000 0.12930  0.27737  0.56200  Biso   1.000  He
  Ne52     1.0000 0.09791  0.28310  0.57008  Biso   1.000  Ne
  Ne53     1.0000 0.41970  0.60711  0.17678  Biso   1.000  Ne
  He53     1.0000 0.39748  0.61724  0.15267  Biso   1.000  He
  He54     1.0000 0.39510  0.59447  0.12673  Biso   1.000  He
  Ne54     1.0000 0.36904  0.60007  0.10622  Biso   1.000  Ne
  Ne55     1.0000 0.09145  0.67270  0.58067  Biso   1.000  Ne
  He55     1.0000 0.12068  0.65836  0.56652  Biso   1.000  He
  He56     1.0000 0.15042  0.67934  0.57189  Biso   1.000  He
  Ne56     1.0000 0.18000  0.66943  0.55644  Biso   1.000  Ne
  Ne57     1.0000 0.60061  0.41600  0.77078  Biso   1.000  Ne
  He57     1.0000 0.62218  0.39113  0.76892  Biso   1.000  He
  He58     1.0000 0.63711  0.39009  0.73854  Biso   1.000  He
  Ne58     1.0000 0.65717  0.36619  0.73849  Biso   1.000  Ne
  Ne59     1.0000 0.42099  0.06783  0.26934  Biso   1.000  Ne
  He59     1.0000 0.40888  0.08128  0.24109  Biso   1.000  He
  He60     1.0000 0.43057  0.08187  0.21707  Biso   1.000  He
  Ne60     1.0000 0.41542  0.09286  0.18771  Biso   1.000  Ne
  Ne61     1.0000 0.71279  0.06332  0.39990  Biso   1.000  Ne
  He61     1.0000 0.69236  0.08749  0.39220  Biso   1.000  He
  He62     1.0000 0.67418  0.09804  0.41744  Biso   1.000  He
  Ne62     1.0000 0.66176  0.12758  0.40946  Biso   1.000  Ne
  Ne63     1.0000 0.10467  0.39074  0.53270  Biso   1.000  Ne
  He63     1.0000 0.12576  0.39924  0.55942  Biso   1.000  He
  He64     1.0000 0.15556  0.39097  0.54872  Biso   1.000  He
  Ne64     1.0000 0.18049  0.39689  0.57060  Biso   1.000  Ne
  Ne65     1.0000 0.44705  0.06380  0.40008  Biso   1.000  Ne
  He65     1.0000 0.44473  0.09145  0.38050  Biso   1.000  He
  He66     1.0000 0.42016  0.11389  0.38730  Biso   1.000  He
  Ne66     1.0000 0.42026  0.14357  0.36905  Biso   1.000  Ne
  Ne67     1.0000 0.91776  0.90095  0.85035  Biso   1.000  Ne
  He67     1.0000 0.91928  0.89611  0.81661  Biso   1.000  He
  He68     1.0000 0.89437  0.89020  0.79844  Biso   1.000  He
  Ne68     1.0000 0.89932  0.88616  0.76539  Biso   1.000  Ne
  Ne69     1.0000 0.61461  0.94160  0.40915  Biso   1.000  Ne
  He69     1.0000 0.61707  0.91582  0.38973  Biso   1.000  He
  He70     1.0000 0.60004  0.89121  0.40242  Biso   1.000  He
  Ne70     1.0000 0.60090  0.86296  0.38361  Biso   1.000  Ne
  Ne71     1.0000 0.15890  0.08050  0.87311  Biso   1.000  Ne
  He71     1.0000 0.14057  0.05842  0.89166  Biso   1.000  He
  He72     1.0000 0.11296  0.04937  0.87713  Biso   1.000  He
  Ne72     1.0000 0.09506  0.02988  0.89409  Biso   1.000  Ne
  Ne73     1.0000 0.46269  0.43615  0.03974  Biso   1.000  Ne
  He73     1.0000 0.44452  0.41047  0.04798  Biso   1.000  He
  He74     1.0000 0.46314  0.38277  0.04882  Biso   1.000  He
  Ne74     1.0000 0.44640  0.35506  0.05746  Biso   1.000  Ne
  Ne75     1.0000 0.59708  0.31373  0.02949  Biso   1.000  Ne
  He75     1.0000 0.60351  0.33823  0.04722  Biso   1.000  He
  He76     1.0000 0.61603  0.36587  0.03080  Biso   1.000  He
  Ne76     1.0000 0.59553  0.39108  0.02565  Biso   1.000  Ne
  Ne77     1.0000 0.45958  0.65527  0.07874  Biso   1.000  Ne
  He77     1.0000 0.45745  0.63318  0.05525  Biso   1.000  He
  He78     1.0000 0.45909  0.60028  0.06060  Biso   1.000  He
  Ne78     1.0000 0.42998  0.58716  0.06347  Biso   1.000  Ne
  Ne79     1.0000 0.85716  0.33963  0.98275  Biso   1.000  Ne
  He79     1.0000 0.83715  0.32085  0.00182  Biso   1.000  He
  He80     1.0000 0.81344  0.33906  0.01835  Biso   1.000  He
  Ne80     1.0000 0.79338  0.32110  0.03502  Biso   1.000  Ne
