data_image0
_cell_length_a       46.5981
_cell_length_b       47.2046
_cell_length_c       46.5523
_cell_angle_alpha    90
_cell_angle_beta     90
_cell_angle_gamma    90

_symmetry_space_group_name_H-M    "P 1"
_symmetry_int_tables_number       1

loop_
  _symmetry_equiv_pos_as_xyz
  'x, y, z'

loop_
  _atom_site_label
  _atom_site_occupancy
  _atom_site_fract_x
  _atom_site_fract_y
  _atom_site_fract_z
  _atom_site_thermal_displace_type
  _atom_site_B_iso_or_equiv
  _atom_site_type_symbol
  Ne1      1.0000 0.93837  0.62171  0.62000  Biso   1.000  Ne
  He1      1.0000 0.94934  0.63102  0.65104  Biso   1.000  He
  He2      1.0000 0.92692  0.63613  0.67385  Biso   1.000  He
  Ne2      1.0000 0.93849  0.65098  0.70208  Biso   1.000  Ne
  Ne3      1.0000 0.15769  0.05451  0.20287  Biso   1.000  Ne
  He3      1.0000 0.16552  0.06364  0.17166  Biso   1.000  He
  He4      1.0000 0.19668  0.06946  0.17026  Biso   1.000  He
  Ne4      1.0000 0.20753  0.08578  0.14313  Biso   1.000  Ne
  Ne5      1.0000 0.43533  0.14363  0.71375  Biso   1.000  Ne
  He5      1.0000 0.43694  0.11410  0.69712  Biso   1.000  He
  He6      1.0000 0.44332  0.08769  0.71389  Biso   1.000  He
  Ne6      1.0000 0.44087  0.06019  0.69488  Biso   1.000  Ne
  Ne7      1.0000 0.93375  0.39095  0.46466  Biso   1.000  Ne
  He7      1.0000 0.96474  0.38587  0.46933  Biso   1.000  He
  He8      1.0000 0.97610  0.38603  0.50093  Biso   1.000  He
  Ne8      1.0000 0.00848  0.38706  0.50611  Biso   1.000  Ne
  Ne9      1.0000 0.10626  0.13406  0.22650  Biso   1.000  Ne
  He9      1.0000 0.09982  0.15113  0.20127  Biso   1.000  He
  He10     1.0000 0.07380  0.14018  0.18280  Biso   1.000  He
  Ne10     1.0000 0.06672  0.15794  0.15752  Biso   1.000  Ne
  Ne11     1.0000 0.93893  0.01050  0.04804  Biso   1.000  Ne
  He11     1.0000 0.93977  0.03446  0.06870  Biso   1.000  He
  He12     1.0000 0.92713  0.02910  0.09863  Biso   1.000  He
  Ne12     1.0000 0.92586  0.05591  0.11926  Biso   1.000  Ne
  Ne13     1.0000 0.16700  0.87919  0.11682  Biso   1.000  Ne
  He13     1.0000 0.19451  0.86076  0.11872  Biso   1.000  He
  He14     1.0000 0.20011  0.84876  0.14759  Biso   1.000  He
  Ne14     1.0000 0.21996  0.82268  0.15025  Biso   1.000  Ne
  Ne15     1.0000 0.08353  0.37744  0.65934  Biso   1.000  Ne
  He15     1.0000 0.07788  0.35889  0.68725  Biso   1.000  He
  He16     1.0000 0.08167  0.37727  0.71308  Biso   1.000  He
  Ne16     1.0000 0.07284  0.36512  0.74315  Biso   1.000  Ne
  Ne17     1.0000 0.21443  0.37951  0.46295  Biso   1.000  Ne
  He17     1.0000 0.19835  0.37856  0.43524  Biso   1.000  He
  He18     1.0000 0.16407  0.38117  0.43856  Biso   1.000  He
  Ne18     1.0000 0.14676  0.37649  0.40866  Biso   1.000  Ne
  Ne19     1.0000 0.16765  0.60928  0.35340  Biso   1.000  Ne
  He19     1.0000 0.13793  0.61610  0.34041  Biso   1.000  He
  He20     1.0000 0.13379  0.60355  0.31028  Biso   1.000  He
  Ne20     1.0000 0.10533  0.61116  0.29755  Biso   1.000  Ne
  Ne21     1.0000 0.89036  0.29868  0.60827  Biso   1.000  Ne
  He21     1.0000 0.87587  0.28055  0.63307  Biso   1.000  He
  He22     1.0000 0.87047  0.24844  0.62309  Biso   1.000  He
  Ne22     1.0000 0.85468  0.22967  0.64389  Biso   1.000  Ne
  Ne23     1.0000 0.32853  0.39881  0.95968  Biso   1.000  Ne
  He23     1.0000 0.33302  0.36886  0.94908  Biso   1.000  He
  He24     1.0000 0.30652  0.34760  0.95511  Biso   1.000  He
  Ne24     1.0000 0.31299  0.31702  0.94703  Biso   1.000  Ne
  Ne25     1.0000 0.43659  0.36068  0.84921  Biso   1.000  Ne
  He25     1.0000 0.40493  0.36697  0.85643  Biso   1.000  He
  He26     1.0000 0.40153  0.39098  0.87833  Biso   1.000  He
  Ne26     1.0000 0.40880  0.38557  0.91069  Biso   1.000  Ne
  Ne27     1.0000 0.14939  0.80927  0.95816  Biso   1.000  Ne
  He27     1.0000 0.13835  0.84097  0.96118  Biso   1.000  He
  He28     1.0000 0.10921  0.84398  0.94853  Biso   1.000  He
  Ne28     1.0000 0.08937  0.86928  0.95360  Biso   1.000  Ne
  Ne29     1.0000 0.59151  0.30057  0.90451  Biso   1.000  Ne
  He29     1.0000 0.58863  0.26722  0.91122  Biso   1.000  He
  He30     1.0000 0.56621  0.25388  0.89048  Biso   1.000  He
  Ne30     1.0000 0.56163  0.22012  0.89472  Biso   1.000  Ne
  Ne31     1.0000 0.80698  0.27167  0.96934  Biso   1.000  Ne
  He31     1.0000 0.81050  0.24330  0.94936  Biso   1.000  He
  He32     1.0000 0.81054  0.21276  0.96704  Biso   1.000  He
  Ne32     1.0000 0.81404  0.18450  0.94772  Biso   1.000  Ne
  Ne33     1.0000 0.31724  0.31094  0.84961  Biso   1.000  Ne
  He33     1.0000 0.34668  0.31014  0.86248  Biso   1.000  He
  He34     1.0000 0.35104  0.29027  0.88982  Biso   1.000  He
  Ne34     1.0000 0.38183  0.28846  0.89647  Biso   1.000  Ne
  Ne35     1.0000 0.39137  0.88836  0.38241  Biso   1.000  Ne
  He35     1.0000 0.40620  0.86568  0.36508  Biso   1.000  He
  He36     1.0000 0.41492  0.83965  0.38078  Biso   1.000  He
  Ne36     1.0000 0.42843  0.81478  0.36401  Biso   1.000  Ne
  Ne37     1.0000 0.86963  0.40645  0.25884  Biso   1.000  Ne
  He37     1.0000 0.84132  0.40226  0.24292  Biso   1.000  He
  He38     1.0000 0.81587  0.40355  0.26459  Biso   1.000  He
  Ne38     1.0000 0.78478  0.39989  0.25144  Biso   1.000  Ne
  Ne39     1.0000 0.64884  0.87816  0.37962  Biso   1.000  Ne
  He39     1.0000 0.67063  0.89219  0.40238  Biso   1.000  He
  He40     1.0000 0.69740  0.87075  0.41221  Biso   1.000  He
  Ne40     1.0000 0.71661  0.88487  0.43737  Biso   1.000  Ne
  Ne41     1.0000 0.91200  0.62658  0.44398  Biso   1.000  Ne
  He41     1.0000 0.92314  0.60675  0.42104  Biso   1.000  He
  He42     1.0000 0.92818  0.57610  0.43261  Biso   1.000  He
  Ne42     1.0000 0.94153  0.55730  0.41173  Biso   1.000  Ne
  Ne43     1.0000 0.07315  0.14406  0.89502  Biso   1.000  Ne
  He43     1.0000 0.08925  0.11314  0.89704  Biso   1.000  He
  He44     1.0000 0.07553  0.09277  0.87498  Biso   1.000  He
  Ne44     1.0000 0.08876  0.06097  0.87736  Biso   1.000  Ne
  Ne45     1.0000 0.86481  0.04964  0.16956  Biso   1.000  Ne
  He45     1.0000 0.84091  0.06003  0.15233  Biso   1.000  He
  He46     1.0000 0.82759  0.03836  0.13029  Biso   1.000  He
  Ne46     1.0000 0.80167  0.04912  0.11410  Biso   1.000  Ne
  Ne47     1.0000 0.29702  0.60918  0.26349  Biso   1.000  Ne
  He47     1.0000 0.31583  0.59575  0.24017  Biso   1.000  He
  He48     1.0000 0.30013  0.58138  0.21671  Biso   1.000  He
  Ne48     1.0000 0.31426  0.55837  0.19490  Biso   1.000  Ne
  Ne49     1.0000 0.44151  0.92078  0.65739  Biso   1.000  Ne
  He49     1.0000 0.44776  0.90945  0.62627  Biso   1.000  He
  He50     1.0000 0.44752  0.87477  0.62332  Biso   1.000  He
  Ne50     1.0000 0.44710  0.86006  0.59377  Biso   1.000  Ne
  Ne51     1.0000 0.92854  0.23818  0.30451  Biso   1.000  Ne
  He51     1.0000 0.94199  0.21154  0.32449  Biso   1.000  He
  He52     1.0000 0.94873  0.21930  0.35787  Biso   1.000  He
  Ne52     1.0000 0.95751  0.19641  0.37816  Biso   1.000  Ne
  Ne53     1.0000 0.57557  0.86979  0.60328  Biso   1.000  Ne
  He53     1.0000 0.60794  0.87613  0.60926  Biso   1.000  He
  He54     1.0000 0.61343  0.87833  0.64424  Biso   1.000  He
  Ne54     1.0000 0.64707  0.88034  0.65127  Biso   1.000  Ne
  Ne55     1.0000 0.41642  0.05850  0.40569  Biso   1.000  Ne
  He55     1.0000 0.42657  0.05076  0.43658  Biso   1.000  He
  He56     1.0000 0.43187  0.07963  0.45024  Biso   1.000  He
  Ne56     1.0000 0.43932  0.07461  0.48315  Biso   1.000  Ne
  Ne57     1.0000 0.13187  0.58656  0.62277  Biso   1.000  Ne
  He57     1.0000 0.11899  0.57212  0.64867  Biso   1.000  He
  He58     1.0000 0.08836  0.56048  0.64213  Biso   1.000  He
  Ne58     1.0000 0.07222  0.54452  0.66620  Biso   1.000  Ne
  Ne59     1.0000 0.33665  0.12271  0.43228  Biso   1.000  Ne
  He59     1.0000 0.33330  0.09656  0.45330  Biso   1.000  He
  He60     1.0000 0.30644  0.07782  0.44471  Biso   1.000  He
  Ne60     1.0000 0.29954  0.05276  0.46450  Biso   1.000  Ne
  Ne61     1.0000 0.43561  0.63438  0.13233  Biso   1.000  Ne
  He61     1.0000 0.42844  0.65921  0.15406  Biso   1.000  He
  He62     1.0000 0.42490  0.64879  0.18472  Biso   1.000  He
  Ne62     1.0000 0.41075  0.67130  0.20382  Biso   1.000  Ne
  Ne63     1.0000 0.54433  0.40850  0.05929  Biso   1.000  Ne
  He63     1.0000 0.52453  0.39506  0.03916  Biso   1.000  He
  He64     1.0000 0.50424  0.41441  0.02522  Biso   1.000  He
  Ne64     1.0000 0.48348  0.39979  0.00245  Biso   1.000  Ne
  Ne65     1.0000 0.19421  0.66234  0.45686  Biso   1.000  Ne
  He65     1.0000 0.18178  0.63288  0.44745  Biso   1.000  He
  He66     1.0000 0.19942  0.60939  0.45993  Biso   1.000  He
  Ne66     1.0000 0.18890  0.57970  0.45172  Biso   1.000  Ne
  Ne67     1.0000 0.88327  0.01792  0.80379  Biso   1.000  Ne
  He67     1.0000 0.90454  0.00172  0.78523  Biso   1.000  He
  He68     1.0000 0.92921  0.02047  0.77921  Biso   1.000  He
  Ne68     1.0000 0.95402  0.00191  0.76678  Biso   1.000  Ne
  Ne69     1.0000 0.97220  0.88574  0.99294  Biso   1.000  Ne
  He69     1.0000 0.00118  0.89607  0.98509  Biso   1.000  He
  He70     1.0000 0.00186  0.91503  0.95904  Biso   1.000  He
  Ne70     1.0000 0.03200  0.92501  0.94798  Biso   1.000  Ne
  Ne71     1.0000 0.22264  0.07056  0.96295  Biso   1.000  Ne
  He71     1.0000 0.19695  0.07594  0.94213  Biso   1.000  He
  He72     1.0000 0.17092  0.06021  0.95615  Biso   1.000  He
  Ne72     1.0000 0.14344  0.05951  0.93978  Biso   1.000  Ne
  Ne73     1.0000 0.70142  0.62979  0.94430  Biso   1.000  Ne
  He73     1.0000 0.66820  0.63250  0.93829  Biso   1.000  He
  He74     1.0000 0.65977  0.64977  0.91116  Biso   1.000  He
  Ne74     1.0000 0.62832  0.65599  0.90782  Biso   1.000  Ne
  Ne75     1.0000 0.70594  0.06875  0.42003  Biso   1.000  Ne
  He75     1.0000 0.67652  0.07938  0.43106  Biso   1.000  He
  He76     1.0000 0.65089  0.06593  0.41362  Biso   1.000  He
  Ne76     1.0000 0.62235  0.07416  0.42672  Biso   1.000  Ne
  Ne77     1.0000 0.46295  0.43107  0.11057  Biso   1.000  Ne
  He77     1.0000 0.45770  0.46464  0.10731  Biso   1.000  He
  He78     1.0000 0.46007  0.47913  0.07700  Biso   1.000  He
  Ne78     1.0000 0.45692  0.51116  0.07750  Biso   1.000  Ne
  Ne79     1.0000 0.32697  0.58169  0.94419  Biso   1.000  Ne
  He79     1.0000 0.32385  0.56029  0.92072  Biso   1.000  He
  He80     1.0000 0.34995  0.55293  0.90280  Biso   1.000  He
  Ne80     1.0000 0.34034  0.53636  0.87485  Biso   1.000  Ne
  Ne81     1.0000 0.31386  0.88291  0.45569  Biso   1.000  Ne
  He81     1.0000 0.31770  0.85007  0.46061  Biso   1.000  He
  He82     1.0000 0.34894  0.84311  0.45819  Biso   1.000  He
  Ne82     1.0000 0.35446  0.80896  0.45807  Biso   1.000  Ne
  Ne83     1.0000 0.59174  0.12813  0.68793  Biso   1.000  Ne
  He83     1.0000 0.60808  0.12573  0.65928  Biso   1.000  He
  He84     1.0000 0.59561  0.14778  0.63845  Biso   1.000  He
  Ne84     1.0000 0.61236  0.15275  0.60927  Biso   1.000  Ne
  Ne85     1.0000 0.68826  0.54045  0.92069  Biso   1.000  Ne
  He85     1.0000 0.65646  0.54660  0.92276  Biso   1.000  He
  He86     1.0000 0.64341  0.55025  0.95519  Biso   1.000  He
  Ne86     1.0000 0.61029  0.54899  0.95655  Biso   1.000  Ne
  Ne87     1.0000 0.60389  0.00865  0.52791  Biso   1.000  Ne
  He87     1.0000 0.57602  0.01835  0.51563  Biso   1.000  He
  He88     1.0000 0.55213  0.02873  0.54238  Biso   1.000  He
  Ne88     1.0000 0.52482  0.04133  0.53159  Biso   1.000  Ne
  Ne89     1.0000 0.41596  0.05778  0.58468  Biso   1.000  Ne
  He89     1.0000 0.44853  0.05334  0.59171  Biso   1.000  He
  He90     1.0000 0.45430  0.02697  0.60766  Biso   1.000  He
  Ne90     1.0000 0.48663  0.01784  0.61250  Biso   1.000  Ne
  Ne91     1.0000 0.06826  0.86954  0.11041  Biso   1.000  Ne
  He91     1.0000 0.08849  0.86061  0.13860  Biso   1.000  He
  He92     1.0000 0.09730  0.88297  0.15754  Biso   1.000  He
  Ne92     1.0000 0.12031  0.87305  0.17996  Biso   1.000  Ne
  Ne93     1.0000 0.92172  0.53279  0.62925  Biso   1.000  Ne
  He93     1.0000 0.94829  0.52593  0.61091  Biso   1.000  He
  He94     1.0000 0.97449  0.54625  0.62028  Biso   1.000  He
  Ne94     1.0000 0.00080  0.53962  0.60422  Biso   1.000  Ne
  Ne95     1.0000 0.83044  0.03658  0.91024  Biso   1.000  Ne
  He95     1.0000 0.80442  0.05621  0.91362  Biso   1.000  He
  He96     1.0000 0.81249  0.08627  0.92758  Biso   1.000  He
  Ne96     1.0000 0.78932  0.09739  0.94771  Biso   1.000  Ne
  Ne97     1.0000 0.09597  0.56037  0.46203  Biso   1.000  Ne
  He97     1.0000 0.10365  0.58557  0.44153  Biso   1.000  He
  He98     1.0000 0.09557  0.61663  0.45204  Biso   1.000  He
  Ne98     1.0000 0.09191  0.63944  0.42677  Biso   1.000  Ne
  Ne99     1.0000 0.36207  0.06348  0.63909  Biso   1.000  Ne
  He99     1.0000 0.34049  0.08249  0.62353  Biso   1.000  He
  He100    1.0000 0.33456  0.11349  0.63478  Biso   1.000  He
  Ne100    1.0000 0.30673  0.12538  0.62298  Biso   1.000  Ne
  Ne101    1.0000 0.88367  0.39572  0.69430  Biso   1.000  Ne
  He101    1.0000 0.88576  0.38710  0.66152  Biso   1.000  He
  He102    1.0000 0.90828  0.40484  0.64849  Biso   1.000  He
  Ne102    1.0000 0.91073  0.39846  0.61530  Biso   1.000  Ne
  Ne103    1.0000 0.37436  0.19525  0.40407  Biso   1.000  Ne
  He103    1.0000 0.39786  0.17813  0.38640  Biso   1.000  He
  He104    1.0000 0.42550  0.16900  0.40687  Biso   1.000  He
  Ne104    1.0000 0.44920  0.15338  0.39110  Biso   1.000  Ne
  Ne105    1.0000 0.19814  0.05020  0.76939  Biso   1.000  Ne
  He105    1.0000 0.18313  0.07086  0.78917  Biso   1.000  He
  He106    1.0000 0.18309  0.06451  0.82091  Biso   1.000  He
  Ne106    1.0000 0.16110  0.08359  0.83778  Biso   1.000  Ne
  Ne107    1.0000 0.90269  0.03298  0.95799  Biso   1.000  Ne
  He107    1.0000 0.93370  0.03596  0.96399  Biso   1.000  He
  He108    1.0000 0.95132  0.01374  0.94583  Biso   1.000  He
  Ne108    1.0000 0.98421  0.01405  0.94969  Biso   1.000  Ne
  Ne109    1.0000 0.45642  0.95817  0.53452  Biso   1.000  Ne
  He109    1.0000 0.48054  0.96868  0.55334  Biso   1.000  He
  He110    1.0000 0.50112  0.94270  0.56557  Biso   1.000  He
  Ne110    1.0000 0.53090  0.94203  0.55724  Biso   1.000  Ne
  Ne111    1.0000 0.59398  0.41117  0.89756  Biso   1.000  Ne
  He111    1.0000 0.58715  0.38313  0.91620  Biso   1.000  He
  He112    1.0000 0.56369  0.38731  0.93681  Biso   1.000  He
  Ne112    1.0000 0.55978  0.35992  0.95601  Biso   1.000  Ne
  Ne113    1.0000 0.89835  0.57692  0.34755  Biso   1.000  Ne
  He113    1.0000 0.87208  0.56005  0.35933  Biso   1.000  He
  He114    1.0000 0.84165  0.56671  0.34461  Biso   1.000  He
  Ne114    1.0000 0.81600  0.54352  0.34992  Biso   1.000  Ne
  Ne115    1.0000 0.90751  0.35062  0.40254  Biso   1.000  Ne
  He115    1.0000 0.91498  0.36785  0.37618  Biso   1.000  He
  He116    1.0000 0.92272  0.39747  0.37844  Biso   1.000  He
  Ne116    1.0000 0.93133  0.40934  0.34690  Biso   1.000  Ne
  Ne117    1.0000 0.41086  0.51568  0.99748  Biso   1.000  Ne
  He117    1.0000 0.41248  0.54067  0.97605  Biso   1.000  He
  He118    1.0000 0.44272  0.55644  0.97126  Biso   1.000  He
  Ne118    1.0000 0.43867  0.58604  0.95498  Biso   1.000  Ne
  Ne119    1.0000 0.95601  0.47855  0.46225  Biso   1.000  Ne
  He119    1.0000 0.96404  0.49865  0.48518  Biso   1.000  He
  He120    1.0000 0.93693  0.51399  0.49540  Biso   1.000  He
  Ne120    1.0000 0.94722  0.53672  0.51613  Biso   1.000  Ne
  Ne121    1.0000 0.33304  0.32930  0.15465  Biso   1.000  Ne
  He121    1.0000 0.35200  0.35595  0.14772  Biso   1.000  He
  He122    1.0000 0.34158  0.37169  0.12326  Biso   1.000  He
  Ne122    1.0000 0.35869  0.39907  0.11483  Biso   1.000  Ne
  Ne123    1.0000 0.47688  0.89825  0.47681  Biso   1.000  Ne
  He123    1.0000 0.45346  0.91446  0.46419  Biso   1.000  He
  He124    1.0000 0.42336  0.89935  0.47207  Biso   1.000  He
  Ne124    1.0000 0.39828  0.91674  0.46382  Biso   1.000  Ne
  Ne125    1.0000 0.42460  0.30356  0.12515  Biso   1.000  Ne
  He125    1.0000 0.42301  0.31483  0.15843  Biso   1.000  He
  He126    1.0000 0.44324  0.34270  0.15951  Biso   1.000  He
  Ne126    1.0000 0.44870  0.35898  0.18686  Biso   1.000  Ne
  Ne127    1.0000 0.56600  0.88559  0.45927  Biso   1.000  Ne
  He127    1.0000 0.57383  0.91445  0.44368  Biso   1.000  He
  He128    1.0000 0.60493  0.92713  0.44942  Biso   1.000  He
  Ne128    1.0000 0.60695  0.94803  0.47652  Biso   1.000  Ne
  Ne129    1.0000 0.59369  0.82767  0.41284  Biso   1.000  Ne
  He129    1.0000 0.60744  0.80256  0.39583  Biso   1.000  He
  He130    1.0000 0.58743  0.78740  0.37329  Biso   1.000  He
  Ne130    1.0000 0.60437  0.76934  0.35160  Biso   1.000  Ne
  Ne131    1.0000 0.06449  0.22507  0.82428  Biso   1.000  Ne
  He131    1.0000 0.07059  0.25431  0.83827  Biso   1.000  He
  He132    1.0000 0.04310  0.26649  0.85165  Biso   1.000  He
  Ne132    1.0000 0.04461  0.29506  0.86823  Biso   1.000  Ne
  Ne133    1.0000 0.57229  0.57074  0.79223  Biso   1.000  Ne
  He133    1.0000 0.56662  0.59317  0.81762  Biso   1.000  He
  He134    1.0000 0.56824  0.58244  0.84884  Biso   1.000  He
  Ne134    1.0000 0.57071  0.60843  0.87228  Biso   1.000  Ne
  Ne135    1.0000 0.33686  0.90665  0.61554  Biso   1.000  Ne
  He135    1.0000 0.34130  0.89583  0.64688  Biso   1.000  He
  He136    1.0000 0.31674  0.90306  0.66858  Biso   1.000  He
  Ne136    1.0000 0.32160  0.89327  0.69867  Biso   1.000  Ne
  Ne137    1.0000 0.08358  0.29032  0.26161  Biso   1.000  Ne
  He137    1.0000 0.06282  0.27851  0.23514  Biso   1.000  He
  He138    1.0000 0.07112  0.24898  0.22672  Biso   1.000  He
  Ne138    1.0000 0.05347  0.23720  0.19922  Biso   1.000  Ne
  Ne139    1.0000 0.57433  0.04093  0.63885  Biso   1.000  Ne
  He139    1.0000 0.60275  0.03048  0.62599  Biso   1.000  He
  He140    1.0000 0.62537  0.05253  0.62087  Biso   1.000  He
  Ne140    1.0000 0.65545  0.03830  0.61084  Biso   1.000  Ne
  Ne141    1.0000 0.85733  0.54974  0.44656  Biso   1.000  Ne
  He141    1.0000 0.83726  0.56784  0.42852  Biso   1.000  He
  He142    1.0000 0.80631  0.56246  0.43718  Biso   1.000  He
  Ne142    1.0000 0.78179  0.57932  0.42068  Biso   1.000  Ne
  Ne143    1.0000 0.83557  0.32766  0.43174  Biso   1.000  Ne
  He143    1.0000 0.82625  0.35437  0.44242  Biso   1.000  He
  He144    1.0000 0.85048  0.37728  0.44041  Biso   1.000  He
  Ne144    1.0000 0.83912  0.40630  0.45174  Biso   1.000  Ne
  Ne145    1.0000 0.77153  0.64790  0.95683  Biso   1.000  Ne
  He145    1.0000 0.78901  0.66537  0.93596  Biso   1.000  He
  He146    1.0000 0.78334  0.69854  0.94199  Biso   1.000  He
  Ne146    1.0000 0.80059  0.72061  0.92455  Biso   1.000  Ne
  Ne147    1.0000 0.09460  0.20359  0.70814  Biso   1.000  Ne
  He147    1.0000 0.10509  0.22109  0.68347  Biso   1.000  He
  He148    1.0000 0.09061  0.21263  0.65241  Biso   1.000  He
  Ne148    1.0000 0.09861  0.23742  0.62877  Biso   1.000  Ne
  Ne149    1.0000 0.47872  0.02795  0.24202  Biso   1.000  Ne
  He149    1.0000 0.49804  0.04880  0.22007  Biso   1.000  He
  He150    1.0000 0.51447  0.07455  0.23414  Biso   1.000  He
  Ne150    1.0000 0.53358  0.09082  0.21206  Biso   1.000  Ne
  Ne151    1.0000 0.92091  0.71862  0.63224  Biso   1.000  Ne
  He151    1.0000 0.90107  0.69564  0.61870  Biso   1.000  He
  He152    1.0000 0.86977  0.69794  0.62363  Biso   1.000  He
  Ne152    1.0000 0.85598  0.66706  0.61687  Biso   1.000  Ne
  Ne153    1.0000 0.37369  0.57286  0.11291  Biso   1.000  Ne
  He153    1.0000 0.35562  0.59930  0.12041  Biso   1.000  He
  He154    1.0000 0.32290  0.59362  0.12183  Biso   1.000  He
  Ne154    1.0000 0.30903  0.61873  0.13186  Biso   1.000  Ne
  Ne155    1.0000 0.92708  0.83301  0.16086  Biso   1.000  Ne
  He155    1.0000 0.92447  0.82908  0.12590  Biso   1.000  He
  He156    1.0000 0.95111  0.83766  0.10666  Biso   1.000  He
  Ne156    1.0000 0.95459  0.86924  0.09522  Biso   1.000  Ne
  Ne157    1.0000 0.04399  0.61210  0.24083  Biso   1.000  Ne
  He157    1.0000 0.04306  0.57894  0.23644  Biso   1.000  He
  He158    1.0000 0.07007  0.56609  0.24668  Biso   1.000  He
  Ne158    1.0000 0.07040  0.53216  0.24384  Biso   1.000  Ne
  Ne159    1.0000 0.50750  0.55899  0.02016  Biso   1.000  Ne
  He159    1.0000 0.52341  0.54279  0.04492  Biso   1.000  He
  He160    1.0000 0.55522  0.55154  0.04721  Biso   1.000  He
  Ne160    1.0000 0.57152  0.53328  0.07101  Biso   1.000  Ne
  Ne161    1.0000 0.94475  0.77882  0.94644  Biso   1.000  Ne
  He161    1.0000 0.93809  0.76972  0.91452  Biso   1.000  He
  He162    1.0000 0.91147  0.78255  0.90161  Biso   1.000  He
  Ne162    1.0000 0.90480  0.77594  0.86981  Biso   1.000  Ne
  Ne163    1.0000 0.90027  0.14196  0.90785  Biso   1.000  Ne
  He163    1.0000 0.90572  0.10863  0.90865  Biso   1.000  He
  He164    1.0000 0.90502  0.09631  0.87527  Biso   1.000  He
  Ne164    1.0000 0.91042  0.06156  0.87402  Biso   1.000  Ne
  Ne165    1.0000 0.63137  0.03179  0.30017  Biso   1.000  Ne
  He165    1.0000 0.64415  0.06207  0.29596  Biso   1.000  He
  He166    1.0000 0.66500  0.07317  0.32184  Biso   1.000  He
  Ne166    1.0000 0.67024  0.10495  0.31883  Biso   1.000  Ne
  Ne167    1.0000 0.38641  0.65593  0.93842  Biso   1.000  Ne
  He167    1.0000 0.39809  0.68795  0.94615  Biso   1.000  He
  He168    1.0000 0.42877  0.68493  0.95735  Biso   1.000  He
  Ne168    1.0000 0.44337  0.71378  0.96410  Biso   1.000  Ne
  Ne169    1.0000 0.86160  0.55565  0.69165  Biso   1.000  Ne
  He169    1.0000 0.84239  0.57240  0.67052  Biso   1.000  He
  He170    1.0000 0.82297  0.55560  0.65117  Biso   1.000  He
  Ne170    1.0000 0.80593  0.57225  0.62901  Biso   1.000  Ne
  Ne171    1.0000 0.43866  0.54584  0.28142  Biso   1.000  Ne
  He171    1.0000 0.43268  0.54459  0.24766  Biso   1.000  He
  He172    1.0000 0.40204  0.55658  0.23542  Biso   1.000  He
  Ne172    1.0000 0.39632  0.55068  0.20453  Biso   1.000  Ne
  Ne173    1.0000 0.34376  0.06894  0.73339  Biso   1.000  Ne
  He173    1.0000 0.33210  0.10124  0.73467  Biso   1.000  He
  He174    1.0000 0.30841  0.10844  0.71257  Biso   1.000  He
  Ne174    1.0000 0.29714  0.14097  0.71280  Biso   1.000  Ne
  Ne175    1.0000 0.34921  0.74406  0.64726  Biso   1.000  Ne
  He175    1.0000 0.36268  0.77295  0.63384  Biso   1.000  He
  He176    1.0000 0.34204  0.79880  0.63300  Biso   1.000  He
  Ne176    1.0000 0.35788  0.82663  0.62415  Biso   1.000  Ne
  Ne177    1.0000 0.79664  0.86311  0.91419  Biso   1.000  Ne
  He177    1.0000 0.82805  0.85809  0.90766  Biso   1.000  He
  He178    1.0000 0.84774  0.87803  0.92534  Biso   1.000  He
  Ne178    1.0000 0.87981  0.87306  0.91857  Biso   1.000  Ne
  Ne179    1.0000 0.31231  0.47571  0.49993  Biso   1.000  Ne
  He179    1.0000 0.33312  0.47577  0.47586  Biso   1.000  He
  He180    1.0000 0.33115  0.44987  0.45973  Biso   1.000  He
  Ne180    1.0000 0.35167  0.44470  0.43458  Biso   1.000  Ne
