data_image0
_cell_length_a       46.8473
_cell_length_b       46.8812
_cell_length_c       46.5448
_cell_angle_alpha    90
_cell_angle_beta     90
_cell_angle_gamma    90

_symmetry_space_group_name_H-M    "P 1"
_symmetry_int_tables_number       1

loop_
  _symmetry_equiv_pos_as_xyz
  'x, y, z'

loop_
  _atom_site_label
  _atom_site_occupancy
  _atom_site_fract_x
  _atom_site_fract_y
  _atom_site_fract_z
  _atom_site_thermal_displace_type
  _atom_site_B_iso_or_equiv
  _atom_site_type_symbol
  Ne1      1.0000 0.45162  0.00102  0.81434  Biso   1.000  Ne
  He1      1.0000 0.42038  0.00922  0.81857  Biso   1.000  He
  He2      1.0000 0.40676  0.02717  0.79448  Biso   1.000  He
  Ne2      1.0000 0.37661  0.03384  0.79867  Biso   1.000  Ne
  Ne3      1.0000 0.17935  0.07294  0.84173  Biso   1.000  Ne
  He3      1.0000 0.18748  0.07012  0.87340  Biso   1.000  He
  He4      1.0000 0.20680  0.04331  0.88175  Biso   1.000  He
  Ne4      1.0000 0.22153  0.04854  0.91098  Biso   1.000  Ne
  Ne5      1.0000 0.53062  0.91256  0.44381  Biso   1.000  Ne
  He5      1.0000 0.55791  0.90481  0.42875  Biso   1.000  He
  He6      1.0000 0.58284  0.90009  0.44791  Biso   1.000  He
  Ne6      1.0000 0.61046  0.88901  0.42923  Biso   1.000  Ne
  Ne7      1.0000 0.63607  0.68692  0.92549  Biso   1.000  Ne
  He7      1.0000 0.64320  0.66138  0.94435  Biso   1.000  He
  He8      1.0000 0.63881  0.63028  0.93268  Biso   1.000  He
  Ne8      1.0000 0.64129  0.60457  0.95428  Biso   1.000  Ne
  Ne9      1.0000 0.65393  0.75043  0.63763  Biso   1.000  Ne
  He9      1.0000 0.63073  0.73514  0.61741  Biso   1.000  He
  He10     1.0000 0.61618  0.75529  0.59246  Biso   1.000  He
  Ne10     1.0000 0.59465  0.73837  0.57233  Biso   1.000  Ne
  Ne11     1.0000 0.76434  0.03722  0.39635  Biso   1.000  Ne
  He11     1.0000 0.76389  0.02932  0.36434  Biso   1.000  He
  He12     1.0000 0.73242  0.03327  0.35351  Biso   1.000  He
  Ne12     1.0000 0.73167  0.03243  0.31924  Biso   1.000  Ne
  Ne13     1.0000 0.59562  0.39811  0.91833  Biso   1.000  Ne
  He13     1.0000 0.62997  0.38943  0.91903  Biso   1.000  He
  He14     1.0000 0.63848  0.37617  0.94877  Biso   1.000  He
  Ne14     1.0000 0.66694  0.36552  0.94699  Biso   1.000  Ne
  Ne15     1.0000 0.58878  0.85951  0.59119  Biso   1.000  Ne
  He15     1.0000 0.61832  0.87652  0.59725  Biso   1.000  He
  He16     1.0000 0.64224  0.86875  0.57810  Biso   1.000  He
  Ne16     1.0000 0.67003  0.88277  0.58719  Biso   1.000  Ne
  Ne17     1.0000 0.86377  0.37492  0.59698  Biso   1.000  Ne
  He17     1.0000 0.89516  0.37230  0.60434  Biso   1.000  He
  He18     1.0000 0.89700  0.37204  0.63552  Biso   1.000  He
  Ne18     1.0000 0.93013  0.37464  0.64899  Biso   1.000  Ne
  Ne19     1.0000 0.59617  0.83401  0.36851  Biso   1.000  Ne
  He19     1.0000 0.60280  0.80456  0.37940  Biso   1.000  He
  He20     1.0000 0.60106  0.80225  0.41316  Biso   1.000  He
  Ne20     1.0000 0.61076  0.76885  0.41774  Biso   1.000  Ne
  Ne21     1.0000 0.45777  0.42224  0.00363  Biso   1.000  Ne
  He21     1.0000 0.44699  0.41003  0.97223  Biso   1.000  He
  He22     1.0000 0.47322  0.40516  0.94897  Biso   1.000  He
  Ne22     1.0000 0.46182  0.39592  0.91911  Biso   1.000  Ne
  Ne23     1.0000 0.09963  0.95627  0.01454  Biso   1.000  Ne
  He23     1.0000 0.08589  0.98056  0.03245  Biso   1.000  He
  He24     1.0000 0.09846  0.98605  0.05955  Biso   1.000  He
  Ne24     1.0000 0.08338  0.01127  0.07793  Biso   1.000  Ne
  Ne25     1.0000 0.07427  0.39951  0.60055  Biso   1.000  Ne
  He25     1.0000 0.07594  0.36623  0.59986  Biso   1.000  He
  He26     1.0000 0.10467  0.35338  0.60967  Biso   1.000  He
  Ne26     1.0000 0.10896  0.32319  0.60271  Biso   1.000  Ne
  Ne27     1.0000 0.83937  0.88607  0.08028  Biso   1.000  Ne
  He27     1.0000 0.86846  0.87806  0.09364  Biso   1.000  He
  He28     1.0000 0.89334  0.89443  0.07846  Biso   1.000  He
  Ne28     1.0000 0.92276  0.88724  0.09320  Biso   1.000  Ne
  Ne29     1.0000 0.44311  0.16732  0.36927  Biso   1.000  Ne
  He29     1.0000 0.44914  0.13840  0.35200  Biso   1.000  He
  He30     1.0000 0.43166  0.11131  0.35835  Biso   1.000  He
  Ne30     1.0000 0.44311  0.08610  0.33978  Biso   1.000  Ne
  Ne31     1.0000 0.69713  0.35650  0.85688  Biso   1.000  Ne
  He31     1.0000 0.67237  0.37610  0.84746  Biso   1.000  He
  He32     1.0000 0.64066  0.35984  0.84097  Biso   1.000  He
  Ne32     1.0000 0.61612  0.37868  0.82958  Biso   1.000  Ne
  Ne33     1.0000 0.94701  0.53293  0.42509  Biso   1.000  Ne
  He33     1.0000 0.91230  0.53998  0.42814  Biso   1.000  He
  He34     1.0000 0.89412  0.53769  0.39768  Biso   1.000  He
  Ne34     1.0000 0.86029  0.54470  0.39444  Biso   1.000  Ne
  Ne35     1.0000 0.11566  0.53262  0.39791  Biso   1.000  Ne
  He35     1.0000 0.14413  0.52779  0.38292  Biso   1.000  He
  He36     1.0000 0.14194  0.53348  0.34851  Biso   1.000  He
  Ne36     1.0000 0.17164  0.53484  0.33345  Biso   1.000  Ne
  Ne37     1.0000 0.84416  0.35781  0.33537  Biso   1.000  Ne
  He37     1.0000 0.83167  0.34365  0.36380  Biso   1.000  He
  He38     1.0000 0.85427  0.34067  0.38783  Biso   1.000  He
  Ne38     1.0000 0.84422  0.33024  0.41504  Biso   1.000  Ne
  Ne39     1.0000 0.38626  0.86748  0.73131  Biso   1.000  Ne
  He39     1.0000 0.41518  0.88143  0.73085  Biso   1.000  He
  He40     1.0000 0.43087  0.87855  0.69990  Biso   1.000  He
  Ne40     1.0000 0.46096  0.89290  0.69821  Biso   1.000  Ne
  Ne41     1.0000 0.60933  0.54027  0.88580  Biso   1.000  Ne
  He41     1.0000 0.58753  0.55091  0.90778  Biso   1.000  He
  He42     1.0000 0.59744  0.54416  0.94002  Biso   1.000  He
  Ne42     1.0000 0.57709  0.55522  0.96437  Biso   1.000  Ne
  Ne43     1.0000 0.85060  0.77551  0.12631  Biso   1.000  Ne
  He43     1.0000 0.82328  0.77448  0.11022  Biso   1.000  He
  He44     1.0000 0.81252  0.80462  0.09567  Biso   1.000  He
  Ne44     1.0000 0.77854  0.80812  0.08756  Biso   1.000  Ne
  Ne45     1.0000 0.90894  0.02514  0.09463  Biso   1.000  Ne
  He45     1.0000 0.92611  0.01697  0.06723  Biso   1.000  He
  He46     1.0000 0.95563  0.03229  0.06281  Biso   1.000  He
  Ne46     1.0000 0.97151  0.02416  0.03470  Biso   1.000  Ne
  Ne47     1.0000 0.41151  0.53701  0.28345  Biso   1.000  Ne
  He47     1.0000 0.41754  0.56324  0.26380  Biso   1.000  He
  He48     1.0000 0.42353  0.55359  0.23455  Biso   1.000  He
  Ne48     1.0000 0.43148  0.57701  0.21084  Biso   1.000  Ne
  Ne49     1.0000 0.63014  0.64287  0.10532  Biso   1.000  Ne
  He49     1.0000 0.62499  0.61036  0.10160  Biso   1.000  He
  He50     1.0000 0.65283  0.59222  0.10785  Biso   1.000  He
  Ne50     1.0000 0.65179  0.55937  0.10311  Biso   1.000  Ne
  Ne51     1.0000 0.45619  0.92033  0.43648  Biso   1.000  Ne
  He51     1.0000 0.42727  0.90713  0.44365  Biso   1.000  He
  He52     1.0000 0.41042  0.91251  0.47305  Biso   1.000  He
  Ne52     1.0000 0.38111  0.89930  0.47190  Biso   1.000  Ne
  Ne53     1.0000 0.39354  0.05691  0.44729  Biso   1.000  Ne
  He53     1.0000 0.42381  0.07061  0.44582  Biso   1.000  He
  He54     1.0000 0.42501  0.10206  0.44048  Biso   1.000  He
  Ne54     1.0000 0.45537  0.10967  0.43597  Biso   1.000  Ne
  Ne55     1.0000 0.60971  0.32742  0.20304  Biso   1.000  Ne
  He55     1.0000 0.61376  0.34693  0.17719  Biso   1.000  He
  He56     1.0000 0.62316  0.37745  0.18336  Biso   1.000  He
  Ne56     1.0000 0.62097  0.39782  0.15665  Biso   1.000  Ne
  Ne57     1.0000 0.44773  0.10435  0.61701  Biso   1.000  Ne
  He57     1.0000 0.44080  0.07412  0.61933  Biso   1.000  He
  He58     1.0000 0.46647  0.05458  0.60935  Biso   1.000  He
  Ne58     1.0000 0.45355  0.02380  0.60062  Biso   1.000  Ne
  Ne59     1.0000 0.60014  0.07247  0.59704  Biso   1.000  Ne
  He59     1.0000 0.61490  0.06212  0.56992  Biso   1.000  He
  He60     1.0000 0.59675  0.05141  0.54510  Biso   1.000  He
  Ne60     1.0000 0.59381  0.01700  0.54860  Biso   1.000  Ne
  Ne61     1.0000 0.18396  0.15029  0.93567  Biso   1.000  Ne
  He61     1.0000 0.15034  0.15103  0.94367  Biso   1.000  He
  He62     1.0000 0.12738  0.15620  0.91731  Biso   1.000  He
  Ne62     1.0000 0.11671  0.18783  0.91471  Biso   1.000  Ne
  Ne63     1.0000 0.25223  0.38513  0.61502  Biso   1.000  Ne
  He63     1.0000 0.22234  0.39885  0.61769  Biso   1.000  He
  He64     1.0000 0.20062  0.38403  0.59643  Biso   1.000  He
  Ne64     1.0000 0.17209  0.40007  0.59656  Biso   1.000  Ne
  Ne65     1.0000 0.46982  0.95387  0.54902  Biso   1.000  Ne
  He65     1.0000 0.46678  0.94217  0.57912  Biso   1.000  He
  He66     1.0000 0.45987  0.90851  0.57995  Biso   1.000  He
  Ne66     1.0000 0.45845  0.89719  0.61195  Biso   1.000  Ne
  Ne67     1.0000 0.12777  0.70749  0.39853  Biso   1.000  Ne
  He67     1.0000 0.13315  0.67521  0.39402  Biso   1.000  He
  He68     1.0000 0.12004  0.66598  0.36547  Biso   1.000  He
  Ne68     1.0000 0.12497  0.63197  0.35813  Biso   1.000  Ne
  Ne69     1.0000 0.68890  0.53312  0.91574  Biso   1.000  Ne
  He69     1.0000 0.70004  0.53913  0.88329  Biso   1.000  He
  He70     1.0000 0.70499  0.56904  0.87615  Biso   1.000  He
  Ne70     1.0000 0.71167  0.57606  0.84374  Biso   1.000  Ne
  Ne71     1.0000 0.61493  0.81666  0.70193  Biso   1.000  Ne
  He71     1.0000 0.63255  0.82415  0.67408  Biso   1.000  He
  He72     1.0000 0.65607  0.84817  0.67618  Biso   1.000  He
  Ne72     1.0000 0.67586  0.84867  0.65101  Biso   1.000  Ne
  Ne73     1.0000 0.43585  0.33729  0.16047  Biso   1.000  Ne
  He73     1.0000 0.44436  0.35352  0.18693  Biso   1.000  He
  He74     1.0000 0.42702  0.34915  0.21481  Biso   1.000  He
  Ne74     1.0000 0.43909  0.36360  0.23847  Biso   1.000  Ne
  Ne75     1.0000 0.94143  0.40619  0.40273  Biso   1.000  Ne
  He75     1.0000 0.94911  0.39323  0.43388  Biso   1.000  He
  He76     1.0000 0.98129  0.39935  0.44427  Biso   1.000  He
  Ne76     1.0000 0.98944  0.38643  0.47738  Biso   1.000  Ne
  Ne77     1.0000 0.59947  0.30256  0.94609  Biso   1.000  Ne
  He77     1.0000 0.61472  0.30498  0.91511  Biso   1.000  He
  He78     1.0000 0.61546  0.27986  0.89307  Biso   1.000  He
  Ne78     1.0000 0.62698  0.28669  0.86473  Biso   1.000  Ne
  Ne79     1.0000 0.40002  0.32983  0.09513  Biso   1.000  Ne
  He79     1.0000 0.38727  0.36020  0.09144  Biso   1.000  He
  He80     1.0000 0.35403  0.35664  0.09152  Biso   1.000  He
  Ne80     1.0000 0.33833  0.38616  0.09289  Biso   1.000  Ne
  Ne81     1.0000 0.92203  0.80448  0.93479  Biso   1.000  Ne
  He81     1.0000 0.93071  0.82997  0.91323  Biso   1.000  He
  He82     1.0000 0.93777  0.85726  0.93165  Biso   1.000  He
  Ne82     1.0000 0.94384  0.88497  0.91426  Biso   1.000  Ne
  Ne83     1.0000 0.28936  0.04278  0.38079  Biso   1.000  Ne
  He83     1.0000 0.31222  0.04888  0.35739  Biso   1.000  He
  He84     1.0000 0.34124  0.05784  0.37036  Biso   1.000  He
  Ne84     1.0000 0.36743  0.06316  0.34827  Biso   1.000  Ne
  Ne85     1.0000 0.76287  0.03929  0.55758  Biso   1.000  Ne
  He85     1.0000 0.73542  0.04490  0.57590  Biso   1.000  He
  He86     1.0000 0.73299  0.07136  0.59503  Biso   1.000  He
  Ne86     1.0000 0.70334  0.07589  0.61081  Biso   1.000  Ne
  Ne87     1.0000 0.91323  0.04369  0.93445  Biso   1.000  Ne
  He87     1.0000 0.89179  0.05973  0.91362  Biso   1.000  He
  He88     1.0000 0.85885  0.06426  0.92402  Biso   1.000  He
  Ne88     1.0000 0.83532  0.07795  0.90136  Biso   1.000  Ne
  Ne89     1.0000 0.95805  0.52982  0.28800  Biso   1.000  Ne
  He89     1.0000 0.95341  0.56210  0.29640  Biso   1.000  He
  He90     1.0000 0.95493  0.56603  0.32786  Biso   1.000  He
  Ne90     1.0000 0.95039  0.59783  0.33289  Biso   1.000  Ne
  Ne91     1.0000 0.11416  0.09048  0.12885  Biso   1.000  Ne
  He91     1.0000 0.14126  0.08400  0.11017  Biso   1.000  He
  He92     1.0000 0.15752  0.05522  0.11723  Biso   1.000  He
  Ne92     1.0000 0.18255  0.04828  0.09500  Biso   1.000  Ne
  Ne93     1.0000 0.10751  0.88904  0.87769  Biso   1.000  Ne
  He93     1.0000 0.10533  0.90074  0.90861  Biso   1.000  He
  He94     1.0000 0.09546  0.87727  0.93072  Biso   1.000  He
  Ne94     1.0000 0.09138  0.89063  0.96103  Biso   1.000  Ne
  Ne95     1.0000 0.44344  0.28167  0.92370  Biso   1.000  Ne
  He95     1.0000 0.44161  0.25578  0.94149  Biso   1.000  He
  He96     1.0000 0.42780  0.22988  0.92853  Biso   1.000  He
  Ne96     1.0000 0.42764  0.20276  0.94813  Biso   1.000  Ne
  Ne97     1.0000 0.06844  0.57161  0.58642  Biso   1.000  Ne
  He97     1.0000 0.09793  0.56930  0.57306  Biso   1.000  He
  He98     1.0000 0.12244  0.56897  0.59431  Biso   1.000  He
  Ne98     1.0000 0.15320  0.56297  0.57863  Biso   1.000  Ne
  Ne99     1.0000 0.84814  0.52767  0.29455  Biso   1.000  Ne
  He99     1.0000 0.86191  0.51582  0.26521  Biso   1.000  He
  He100    1.0000 0.89086  0.52556  0.25666  Biso   1.000  He
  Ne100    1.0000 0.90364  0.51346  0.22715  Biso   1.000  Ne
