data_image0
_cell_length_a       46.5753
_cell_length_b       46.6639
_cell_length_c       46.5667
_cell_angle_alpha    90
_cell_angle_beta     90
_cell_angle_gamma    90

_symmetry_space_group_name_H-M    "P 1"
_symmetry_int_tables_number       1

loop_
  _symmetry_equiv_pos_as_xyz
  'x, y, z'

loop_
  _atom_site_label
  _atom_site_occupancy
  _atom_site_fract_x
  _atom_site_fract_y
  _atom_site_fract_z
  _atom_site_thermal_displace_type
  _atom_site_B_iso_or_equiv
  _atom_site_type_symbol
  Ne1      1.0000 0.99081  0.47318  0.22321  Biso   1.000  Ne
  He1      1.0000 0.02337  0.46763  0.22494  Biso   1.000  He
  He2      1.0000 0.03365  0.43883  0.24096  Biso   1.000  He
  Ne2      1.0000 0.06791  0.43273  0.24276  Biso   1.000  Ne
  Ne3      1.0000 0.02511  0.98822  0.99250  Biso   1.000  Ne
  He3      1.0000 0.03682  0.95728  0.00474  Biso   1.000  He
  He4      1.0000 0.07009  0.94841  0.99762  Biso   1.000  He
  Ne4      1.0000 0.08246  0.92059  0.01195  Biso   1.000  Ne
  Ne5      1.0000 0.34262  0.08144  0.35680  Biso   1.000  Ne
  He5      1.0000 0.36032  0.06212  0.37665  Biso   1.000  He
  He6      1.0000 0.35100  0.06813  0.40732  Biso   1.000  He
  Ne6      1.0000 0.37007  0.05219  0.43058  Biso   1.000  Ne
  Ne7      1.0000 0.43924  0.40793  0.25409  Biso   1.000  Ne
  He7      1.0000 0.42617  0.41393  0.22617  Biso   1.000  He
  He8      1.0000 0.44037  0.39652  0.20191  Biso   1.000  He
  Ne8      1.0000 0.43621  0.40625  0.17253  Biso   1.000  Ne
  Ne9      1.0000 0.90672  0.77522  0.49148  Biso   1.000  Ne
  He9      1.0000 0.90792  0.74674  0.47120  Biso   1.000  He
  He10     1.0000 0.92522  0.72180  0.48580  Biso   1.000  He
  Ne10     1.0000 0.92769  0.69251  0.46930  Biso   1.000  Ne
  Ne11     1.0000 0.43089  0.38457  0.98735  Biso   1.000  Ne
  He11     1.0000 0.41712  0.39317  0.95768  Biso   1.000  He
  He12     1.0000 0.40178  0.42379  0.95586  Biso   1.000  He
  Ne12     1.0000 0.38568  0.42634  0.92862  Biso   1.000  Ne
  Ne13     1.0000 0.43788  0.79486  0.64002  Biso   1.000  Ne
  He13     1.0000 0.43282  0.82290  0.65859  Biso   1.000  He
  He14     1.0000 0.44192  0.85047  0.64250  Biso   1.000  He
  Ne14     1.0000 0.43243  0.87723  0.65497  Biso   1.000  Ne
  Ne15     1.0000 0.11630  0.63956  0.46725  Biso   1.000  Ne
  He15     1.0000 0.13751  0.66236  0.45591  Biso   1.000  He
  He16     1.0000 0.16456  0.66634  0.47684  Biso   1.000  He
  Ne16     1.0000 0.18840  0.68596  0.46479  Biso   1.000  Ne
  Ne17     1.0000 0.93970  0.29943  0.30561  Biso   1.000  Ne
  He17     1.0000 0.94215  0.29728  0.27301  Biso   1.000  He
  He18     1.0000 0.91386  0.28758  0.25997  Biso   1.000  He
  Ne18     1.0000 0.91260  0.29040  0.22843  Biso   1.000  Ne
  Ne19     1.0000 0.93726  0.88473  0.78409  Biso   1.000  Ne
  He19     1.0000 0.92233  0.88859  0.81496  Biso   1.000  He
  He20     1.0000 0.90792  0.86111  0.82652  Biso   1.000  He
  Ne20     1.0000 0.88932  0.86479  0.85329  Biso   1.000  Ne
  Ne21     1.0000 0.80492  0.38511  0.70529  Biso   1.000  Ne
  He21     1.0000 0.81295  0.36214  0.72898  Biso   1.000  He
  He22     1.0000 0.79456  0.36239  0.75562  Biso   1.000  He
  Ne22     1.0000 0.79930  0.34067  0.77706  Biso   1.000  Ne
  Ne23     1.0000 0.40152  0.38130  0.85693  Biso   1.000  Ne
  He23     1.0000 0.38601  0.39946  0.83283  Biso   1.000  He
  He24     1.0000 0.35683  0.39091  0.83285  Biso   1.000  He
  Ne24     1.0000 0.33831  0.40887  0.81046  Biso   1.000  Ne
  Ne25     1.0000 0.95591  0.73980  0.97405  Biso   1.000  Ne
  He25     1.0000 0.92389  0.73909  0.98345  Biso   1.000  He
  He26     1.0000 0.91815  0.71086  0.00205  Biso   1.000  He
  Ne26     1.0000 0.88623  0.70472  0.00882  Biso   1.000  Ne
  Ne27     1.0000 0.60683  0.29044  0.91980  Biso   1.000  Ne
  He27     1.0000 0.62251  0.31385  0.93535  Biso   1.000  He
  He28     1.0000 0.65362  0.30413  0.94787  Biso   1.000  He
  Ne28     1.0000 0.66627  0.32758  0.96674  Biso   1.000  Ne
  Ne29     1.0000 0.63762  0.42337  0.96990  Biso   1.000  Ne
  He29     1.0000 0.61150  0.40899  0.95665  Biso   1.000  He
  He30     1.0000 0.59081  0.38754  0.97379  Biso   1.000  He
  Ne30     1.0000 0.55938  0.39887  0.97628  Biso   1.000  Ne
  Ne31     1.0000 0.59303  0.54033  0.05859  Biso   1.000  Ne
  He31     1.0000 0.60752  0.53505  0.08953  Biso   1.000  He
  He32     1.0000 0.59549  0.55101  0.11611  Biso   1.000  He
  Ne32     1.0000 0.60793  0.54545  0.14588  Biso   1.000  Ne
  Ne33     1.0000 0.61684  0.36173  0.14080  Biso   1.000  Ne
  He33     1.0000 0.60101  0.33616  0.13792  Biso   1.000  He
  He34     1.0000 0.61612  0.30670  0.12612  Biso   1.000  He
  Ne34     1.0000 0.59420  0.28041  0.12278  Biso   1.000  Ne
  Ne35     1.0000 0.60152  0.89621  0.69389  Biso   1.000  Ne
  He35     1.0000 0.59615  0.86249  0.70555  Biso   1.000  He
  He36     1.0000 0.60511  0.85722  0.73845  Biso   1.000  He
  Ne36     1.0000 0.60133  0.82356  0.74928  Biso   1.000  Ne
  Ne37     1.0000 0.14638  0.11312  0.24399  Biso   1.000  Ne
  He37     1.0000 0.13195  0.09678  0.26897  Biso   1.000  He
  He38     1.0000 0.15222  0.08332  0.29248  Biso   1.000  He
  Ne38     1.0000 0.13617  0.06122  0.30991  Biso   1.000  Ne
  Ne39     1.0000 0.83776  0.81302  0.16619  Biso   1.000  Ne
  He39     1.0000 0.83232  0.84436  0.15670  Biso   1.000  He
  He40     1.0000 0.85278  0.86442  0.17326  Biso   1.000  He
  Ne40     1.0000 0.84810  0.89299  0.15813  Biso   1.000  Ne
  Ne41     1.0000 0.35759  0.88177  0.46005  Biso   1.000  Ne
  He41     1.0000 0.38400  0.86729  0.47726  Biso   1.000  He
  He42     1.0000 0.41269  0.87153  0.46683  Biso   1.000  He
  Ne42     1.0000 0.43757  0.85788  0.48270  Biso   1.000  Ne
  Ne43     1.0000 0.43134  0.96243  0.61370  Biso   1.000  Ne
  He43     1.0000 0.46586  0.96490  0.61862  Biso   1.000  He
  He44     1.0000 0.48528  0.94572  0.59992  Biso   1.000  He
  Ne44     1.0000 0.51730  0.94527  0.61139  Biso   1.000  Ne
  Ne45     1.0000 0.37949  0.87318  0.77161  Biso   1.000  Ne
  He45     1.0000 0.34691  0.87954  0.76267  Biso   1.000  He
  He46     1.0000 0.32427  0.85655  0.77016  Biso   1.000  He
  Ne46     1.0000 0.29534  0.86638  0.75832  Biso   1.000  Ne
  Ne47     1.0000 0.28696  0.57889  0.33935  Biso   1.000  Ne
  He47     1.0000 0.29352  0.60532  0.32007  Biso   1.000  He
  He48     1.0000 0.29550  0.63475  0.33743  Biso   1.000  He
  Ne48     1.0000 0.30371  0.66392  0.32212  Biso   1.000  Ne
  Ne49     1.0000 0.84169  0.05627  0.14042  Biso   1.000  Ne
  He49     1.0000 0.84415  0.07700  0.16664  Biso   1.000  He
  He50     1.0000 0.83488  0.10741  0.15753  Biso   1.000  He
  Ne50     1.0000 0.83523  0.12653  0.18258  Biso   1.000  Ne
  Ne51     1.0000 0.24536  0.62702  0.47519  Biso   1.000  Ne
  He51     1.0000 0.24652  0.60457  0.45186  Biso   1.000  He
  He52     1.0000 0.21678  0.59130  0.44499  Biso   1.000  He
  Ne52     1.0000 0.21840  0.57455  0.41992  Biso   1.000  Ne
  Ne53     1.0000 0.92783  0.65451  0.38228  Biso   1.000  Ne
  He53     1.0000 0.92189  0.62520  0.37121  Biso   1.000  He
  He54     1.0000 0.94926  0.61502  0.35319  Biso   1.000  He
  Ne54     1.0000 0.94512  0.58573  0.34077  Biso   1.000  Ne
  Ne55     1.0000 0.87682  0.66529  0.62821  Biso   1.000  Ne
  He55     1.0000 0.90161  0.65809  0.64801  Biso   1.000  He
  He56     1.0000 0.91360  0.62861  0.64521  Biso   1.000  He
  Ne56     1.0000 0.94126  0.62595  0.66335  Biso   1.000  Ne
  Ne57     1.0000 0.19062  0.21354  0.67322  Biso   1.000  Ne
  He57     1.0000 0.20547  0.22511  0.64580  Biso   1.000  He
  He58     1.0000 0.19279  0.21391  0.61787  Biso   1.000  He
  Ne58     1.0000 0.21125  0.22523  0.59116  Biso   1.000  Ne
  Ne59     1.0000 0.08720  0.43282  0.11379  Biso   1.000  Ne
  He59     1.0000 0.07880  0.45482  0.13865  Biso   1.000  He
  He60     1.0000 0.06818  0.48310  0.12899  Biso   1.000  He
  Ne60     1.0000 0.06045  0.50596  0.15127  Biso   1.000  Ne
  Ne61     1.0000 0.28686  0.09079  0.76361  Biso   1.000  Ne
  He61     1.0000 0.27978  0.07630  0.73406  Biso   1.000  He
  He62     1.0000 0.24597  0.06791  0.73167  Biso   1.000  He
  Ne62     1.0000 0.23910  0.04838  0.70730  Biso   1.000  Ne
  Ne63     1.0000 0.80731  0.24149  0.99310  Biso   1.000  Ne
  He63     1.0000 0.79095  0.22730  0.96533  Biso   1.000  He
  He64     1.0000 0.77354  0.20095  0.97494  Biso   1.000  He
  Ne64     1.0000 0.76154  0.18221  0.95005  Biso   1.000  Ne
  Ne65     1.0000 0.03989  0.49896  0.62580  Biso   1.000  Ne
  He65     1.0000 0.06993  0.51071  0.63164  Biso   1.000  He
  He66     1.0000 0.07435  0.54219  0.62196  Biso   1.000  He
  Ne66     1.0000 0.10684  0.55443  0.61245  Biso   1.000  Ne
  Ne67     1.0000 0.70206  0.57274  0.14224  Biso   1.000  Ne
  He67     1.0000 0.72202  0.55117  0.16321  Biso   1.000  He
  He68     1.0000 0.74979  0.56432  0.17574  Biso   1.000  He
  Ne68     1.0000 0.74716  0.58008  0.20669  Biso   1.000  Ne
  Ne69     1.0000 0.84578  0.56485  0.46915  Biso   1.000  Ne
  He69     1.0000 0.85134  0.59698  0.47711  Biso   1.000  He
  He70     1.0000 0.85534  0.61992  0.45347  Biso   1.000  He
  Ne70     1.0000 0.85547  0.65109  0.46346  Biso   1.000  Ne
  Ne71     1.0000 0.58447  0.72829  0.91039  Biso   1.000  Ne
  He71     1.0000 0.58177  0.69721  0.91421  Biso   1.000  He
  He72     1.0000 0.60627  0.68217  0.93259  Biso   1.000  He
  Ne72     1.0000 0.60288  0.64748  0.93613  Biso   1.000  Ne
  Ne73     1.0000 0.78313  0.79568  0.65452  Biso   1.000  Ne
  He73     1.0000 0.75627  0.77719  0.64477  Biso   1.000  He
  He74     1.0000 0.75246  0.75203  0.66382  Biso   1.000  He
  Ne74     1.0000 0.72604  0.73733  0.65682  Biso   1.000  Ne
  Ne75     1.0000 0.90371  0.11269  0.11308  Biso   1.000  Ne
  He75     1.0000 0.91032  0.07899  0.11469  Biso   1.000  He
  He76     1.0000 0.92880  0.07152  0.13985  Biso   1.000  He
  Ne76     1.0000 0.93703  0.04246  0.14240  Biso   1.000  Ne
  Ne77     1.0000 0.13540  0.67839  0.75035  Biso   1.000  Ne
  He77     1.0000 0.11665  0.70485  0.75529  Biso   1.000  He
  He78     1.0000 0.10898  0.71155  0.78623  Biso   1.000  He
  Ne78     1.0000 0.09336  0.74218  0.79093  Biso   1.000  Ne
  Ne79     1.0000 0.74223  0.18230  0.63646  Biso   1.000  Ne
  He79     1.0000 0.71419  0.16479  0.64111  Biso   1.000  He
  He80     1.0000 0.71625  0.13600  0.65433  Biso   1.000  He
  Ne80     1.0000 0.68885  0.11703  0.64961  Biso   1.000  Ne
  Ne81     1.0000 0.40018  0.58096  0.97005  Biso   1.000  Ne
  He81     1.0000 0.43220  0.57285  0.96249  Biso   1.000  He
  He82     1.0000 0.44682  0.55914  0.98908  Biso   1.000  He
  Ne82     1.0000 0.47876  0.54893  0.98135  Biso   1.000  Ne
  Ne83     1.0000 0.41775  0.35422  0.11693  Biso   1.000  Ne
  He83     1.0000 0.39806  0.33164  0.13254  Biso   1.000  He
  He84     1.0000 0.41401  0.31814  0.15709  Biso   1.000  He
  Ne84     1.0000 0.39715  0.29645  0.17316  Biso   1.000  Ne
  Ne85     1.0000 0.72929  0.09229  0.46134  Biso   1.000  Ne
  He85     1.0000 0.71269  0.11884  0.45319  Biso   1.000  He
  He86     1.0000 0.72513  0.14804  0.46285  Biso   1.000  He
  Ne86     1.0000 0.70853  0.17607  0.45318  Biso   1.000  Ne
  Ne87     1.0000 0.62049  0.62823  0.23006  Biso   1.000  Ne
  He87     1.0000 0.59346  0.61402  0.24337  Biso   1.000  He
  He88     1.0000 0.59507  0.58098  0.25004  Biso   1.000  He
  Ne88     1.0000 0.57046  0.57019  0.26773  Biso   1.000  Ne
  Ne89     1.0000 0.14367  0.77812  0.71918  Biso   1.000  Ne
  He89     1.0000 0.12405  0.80322  0.72222  Biso   1.000  He
  He90     1.0000 0.13751  0.82855  0.73714  Biso   1.000  He
  Ne90     1.0000 0.11775  0.85405  0.74161  Biso   1.000  Ne
  Ne91     1.0000 0.72704  0.86701  0.46184  Biso   1.000  Ne
  He91     1.0000 0.70078  0.87468  0.44235  Biso   1.000  He
  He92     1.0000 0.69657  0.90610  0.44170  Biso   1.000  He
  Ne92     1.0000 0.66947  0.91611  0.42655  Biso   1.000  Ne
  Ne93     1.0000 0.73198  0.55718  0.94257  Biso   1.000  Ne
  He93     1.0000 0.75056  0.55671  0.96902  Biso   1.000  He
  He94     1.0000 0.77244  0.53295  0.97090  Biso   1.000  He
  Ne94     1.0000 0.79439  0.53420  0.99483  Biso   1.000  Ne
  Ne95     1.0000 0.71130  0.31274  0.16902  Biso   1.000  Ne
  He95     1.0000 0.70059  0.33599  0.14827  Biso   1.000  He
  He96     1.0000 0.70765  0.36671  0.15926  Biso   1.000  He
  Ne96     1.0000 0.69789  0.38912  0.13922  Biso   1.000  Ne
  Ne97     1.0000 0.42448  0.65630  0.86629  Biso   1.000  Ne
  He97     1.0000 0.43101  0.63057  0.84963  Biso   1.000  He
  He98     1.0000 0.43511  0.60499  0.87152  Biso   1.000  He
  Ne98     1.0000 0.43937  0.57695  0.85931  Biso   1.000  Ne
  Ne99     1.0000 0.78548  0.57532  0.62273  Biso   1.000  Ne
  He99     1.0000 0.81419  0.55764  0.62473  Biso   1.000  He
  He100    1.0000 0.83722  0.57556  0.64151  Biso   1.000  He
  Ne100    1.0000 0.86745  0.56069  0.64969  Biso   1.000  Ne
  Ne101    1.0000 0.93988  0.81756  0.89284  Biso   1.000  Ne
  He101    1.0000 0.94271  0.83803  0.91976  Biso   1.000  He
  He102    1.0000 0.94929  0.82131  0.94749  Biso   1.000  He
  Ne102    1.0000 0.96335  0.83956  0.97367  Biso   1.000  Ne
  Ne103    1.0000 0.88655  0.06248  0.96232  Biso   1.000  Ne
  He103    1.0000 0.91936  0.06482  0.95859  Biso   1.000  He
  He104    1.0000 0.93351  0.03581  0.95149  Biso   1.000  He
  Ne104    1.0000 0.96626  0.03851  0.94442  Biso   1.000  Ne
  Ne105    1.0000 0.15948  0.86008  0.24031  Biso   1.000  Ne
  He105    1.0000 0.12883  0.86235  0.24917  Biso   1.000  He
  He106    1.0000 0.11992  0.89350  0.25202  Biso   1.000  He
  Ne106    1.0000 0.08717  0.89839  0.26017  Biso   1.000  Ne
  Ne107    1.0000 0.44509  0.06552  0.65268  Biso   1.000  Ne
  He107    1.0000 0.45327  0.05350  0.62036  Biso   1.000  He
  He108    1.0000 0.46793  0.07577  0.59887  Biso   1.000  He
  Ne108    1.0000 0.47686  0.06313  0.56820  Biso   1.000  Ne
  Ne109    1.0000 0.89136  0.96884  0.38008  Biso   1.000  Ne
  He109    1.0000 0.86350  0.95273  0.38804  Biso   1.000  He
  He110    1.0000 0.83426  0.96247  0.37465  Biso   1.000  He
  Ne110    1.0000 0.80622  0.94881  0.38703  Biso   1.000  Ne
  Ne111    1.0000 0.91432  0.23731  0.63290  Biso   1.000  Ne
  He111    1.0000 0.90589  0.26889  0.62749  Biso   1.000  He
  He112    1.0000 0.92980  0.28928  0.62617  Biso   1.000  He
  Ne112    1.0000 0.92205  0.32104  0.61607  Biso   1.000  Ne
  Ne113    1.0000 0.09576  0.04517  0.00214  Biso   1.000  Ne
  He113    1.0000 0.10604  0.05722  0.97167  Biso   1.000  He
  He114    1.0000 0.13883  0.06725  0.97645  Biso   1.000  He
  Ne114    1.0000 0.15785  0.07056  0.94906  Biso   1.000  Ne
  Ne115    1.0000 0.54836  0.01621  0.63082  Biso   1.000  Ne
  He115    1.0000 0.57917  0.02787  0.63394  Biso   1.000  He
  He116    1.0000 0.58509  0.05937  0.62519  Biso   1.000  He
  Ne116    1.0000 0.61731  0.06841  0.63240  Biso   1.000  Ne
  Ne117    1.0000 0.92900  0.03807  0.85458  Biso   1.000  Ne
  He117    1.0000 0.89965  0.04862  0.86737  Biso   1.000  He
  He118    1.0000 0.87349  0.02907  0.85701  Biso   1.000  He
  Ne118    1.0000 0.84688  0.04391  0.86984  Biso   1.000  Ne
  Ne119    1.0000 0.19414  0.59213  0.33393  Biso   1.000  Ne
  He119    1.0000 0.16449  0.58388  0.34809  Biso   1.000  He
  He120    1.0000 0.13773  0.59416  0.32996  Biso   1.000  He
  Ne120    1.0000 0.10941  0.58228  0.34190  Biso   1.000  Ne
  Ne121    1.0000 0.16998  0.29189  0.43958  Biso   1.000  Ne
  He121    1.0000 0.14068  0.30541  0.42600  Biso   1.000  He
  He122    1.0000 0.12315  0.31964  0.44784  Biso   1.000  He
  Ne122    1.0000 0.09833  0.33349  0.43415  Biso   1.000  Ne
  Ne123    1.0000 0.10214  0.40692  0.56863  Biso   1.000  Ne
  He123    1.0000 0.13226  0.41066  0.58338  Biso   1.000  He
  He124    1.0000 0.13498  0.39098  0.60997  Biso   1.000  He
  Ne124    1.0000 0.16378  0.38500  0.62460  Biso   1.000  Ne
  Ne125    1.0000 0.64422  0.06747  0.46194  Biso   1.000  Ne
  He125    1.0000 0.64386  0.06145  0.42859  Biso   1.000  He
  He126    1.0000 0.61593  0.07211  0.41468  Biso   1.000  He
  Ne126    1.0000 0.60943  0.06325  0.38267  Biso   1.000  Ne
  Ne127    1.0000 0.24965  0.87413  0.95532  Biso   1.000  Ne
  He127    1.0000 0.27080  0.88262  0.97964  Biso   1.000  He
  He128    1.0000 0.28049  0.91350  0.97497  Biso   1.000  He
  Ne128    1.0000 0.26555  0.93832  0.99104  Biso   1.000  Ne
  Ne129    1.0000 0.77295  0.31426  0.66028  Biso   1.000  Ne
  He129    1.0000 0.78768  0.32889  0.63464  Biso   1.000  He
  He130    1.0000 0.81966  0.33269  0.63650  Biso   1.000  He
  Ne130    1.0000 0.82923  0.35288  0.61239  Biso   1.000  Ne
  Ne131    1.0000 0.80332  0.58914  0.30481  Biso   1.000  Ne
  He131    1.0000 0.80851  0.57327  0.27581  Biso   1.000  He
  He132    1.0000 0.83384  0.55187  0.27750  Biso   1.000  He
  Ne132    1.0000 0.83920  0.53909  0.24638  Biso   1.000  Ne
  Ne133    1.0000 0.54735  0.46591  0.01615  Biso   1.000  Ne
  He133    1.0000 0.55865  0.47974  0.98785  Biso   1.000  He
  He134    1.0000 0.55660  0.50775  0.98215  Biso   1.000  He
  Ne134    1.0000 0.56677  0.51338  0.95228  Biso   1.000  Ne
  Ne135    1.0000 0.10242  0.40250  0.38279  Biso   1.000  Ne
  He135    1.0000 0.12367  0.40081  0.35657  Biso   1.000  He
  He136    1.0000 0.13341  0.42967  0.34080  Biso   1.000  He
  Ne136    1.0000 0.15605  0.42257  0.32105  Biso   1.000  Ne
  Ne137    1.0000 0.54432  0.43781  0.13381  Biso   1.000  Ne
  He137    1.0000 0.57335  0.44117  0.11653  Biso   1.000  He
  He138    1.0000 0.57330  0.42963  0.08539  Biso   1.000  He
  Ne138    1.0000 0.60054  0.43877  0.07027  Biso   1.000  Ne
  Ne139    1.0000 0.43079  0.13963  0.69688  Biso   1.000  Ne
  He139    1.0000 0.42748  0.12684  0.72903  Biso   1.000  He
  He140    1.0000 0.43727  0.09475  0.72774  Biso   1.000  He
  Ne140    1.0000 0.43324  0.07446  0.75483  Biso   1.000  Ne
  Ne141    1.0000 0.63206  0.40397  0.22262  Biso   1.000  Ne
  He141    1.0000 0.63669  0.37161  0.22813  Biso   1.000  He
  He142    1.0000 0.60708  0.35553  0.23650  Biso   1.000  He
  Ne142    1.0000 0.61406  0.32398  0.24365  Biso   1.000  Ne
  Ne143    1.0000 0.59752  0.87794  0.44281  Biso   1.000  Ne
  He143    1.0000 0.59792  0.85352  0.41999  Biso   1.000  He
  He144    1.0000 0.60659  0.82392  0.43028  Biso   1.000  He
  Ne144    1.0000 0.60625  0.80147  0.40575  Biso   1.000  Ne
  Ne145    1.0000 0.48851  0.40950  0.08740  Biso   1.000  Ne
  He145    1.0000 0.47700  0.42633  0.06037  Biso   1.000  He
  He146    1.0000 0.44998  0.44139  0.06925  Biso   1.000  He
  Ne146    1.0000 0.43477  0.45745  0.04513  Biso   1.000  Ne
  Ne147    1.0000 0.05364  0.75656  0.61652  Biso   1.000  Ne
  He147    1.0000 0.07127  0.73459  0.63665  Biso   1.000  He
  He148    1.0000 0.10511  0.73694  0.63633  Biso   1.000  He
  Ne148    1.0000 0.11906  0.71430  0.65496  Biso   1.000  Ne
  Ne149    1.0000 0.11586  0.56558  0.70596  Biso   1.000  Ne
  He149    1.0000 0.13129  0.57698  0.73335  Biso   1.000  He
  He150    1.0000 0.11737  0.56335  0.75993  Biso   1.000  He
  Ne150    1.0000 0.13040  0.57259  0.79115  Biso   1.000  Ne
  Ne151    1.0000 0.38986  0.57385  0.22738  Biso   1.000  Ne
  He151    1.0000 0.42088  0.56939  0.21604  Biso   1.000  He
  He152    1.0000 0.42100  0.56036  0.18340  Biso   1.000  He
  Ne152    1.0000 0.45225  0.55924  0.16936  Biso   1.000  Ne
  Ne153    1.0000 0.16237  0.63362  0.63669  Biso   1.000  Ne
  He153    1.0000 0.17177  0.60335  0.64600  Biso   1.000  He
  He154    1.0000 0.19447  0.59003  0.62876  Biso   1.000  He
  Ne154    1.0000 0.20336  0.56132  0.64063  Biso   1.000  Ne
  Ne155    1.0000 0.44617  0.05933  0.36017  Biso   1.000  Ne
  He155    1.0000 0.44799  0.08862  0.37752  Biso   1.000  He
  He156    1.0000 0.43598  0.11729  0.36257  Biso   1.000  He
  Ne156    1.0000 0.43346  0.14608  0.38029  Biso   1.000  Ne
  Ne157    1.0000 0.64201  0.74143  0.46969  Biso   1.000  Ne
  He157    1.0000 0.66644  0.73231  0.44901  Biso   1.000  He
  He158    1.0000 0.68002  0.75913  0.43650  Biso   1.000  He
  Ne158    1.0000 0.70107  0.74631  0.41290  Biso   1.000  Ne
  Ne159    1.0000 0.74486  0.05482  0.72630  Biso   1.000  Ne
  He159    1.0000 0.72961  0.03846  0.70166  Biso   1.000  He
  He160    1.0000 0.74670  0.04037  0.67391  Biso   1.000  He
  Ne160    1.0000 0.73119  0.02978  0.64478  Biso   1.000  Ne
  Ne161    1.0000 0.11273  0.27859  0.69641  Biso   1.000  Ne
  He161    1.0000 0.12145  0.27691  0.66533  Biso   1.000  He
  He162    1.0000 0.12687  0.30659  0.64958  Biso   1.000  He
  Ne162    1.0000 0.13203  0.30362  0.61609  Biso   1.000  Ne
  Ne163    1.0000 0.93549  0.59339  0.78173  Biso   1.000  Ne
  He163    1.0000 0.94567  0.57259  0.75738  Biso   1.000  He
  He164    1.0000 0.92940  0.57354  0.72971  Biso   1.000  He
  Ne164    1.0000 0.94003  0.55256  0.70575  Biso   1.000  Ne
  Ne165    1.0000 0.90313  0.41442  0.59545  Biso   1.000  Ne
  He165    1.0000 0.90993  0.40982  0.62759  Biso   1.000  He
  He166    1.0000 0.94223  0.40981  0.63927  Biso   1.000  He
  Ne166    1.0000 0.94820  0.40910  0.67088  Biso   1.000  Ne
  Ne167    1.0000 0.98334  0.55222  0.51011  Biso   1.000  Ne
  He167    1.0000 0.97610  0.57062  0.48318  Biso   1.000  He
  He168    1.0000 0.94549  0.58906  0.48152  Biso   1.000  He
  Ne168    1.0000 0.94402  0.61062  0.45515  Biso   1.000  Ne
  Ne169    1.0000 0.63894  0.58076  0.83754  Biso   1.000  Ne
  He169    1.0000 0.64652  0.58523  0.87429  Biso   1.000  He
  He170    1.0000 0.62691  0.56759  0.89276  Biso   1.000  He
  Ne170    1.0000 0.63253  0.57142  0.92361  Biso   1.000  Ne
  Ne171    1.0000 0.08168  0.07395  0.79882  Biso   1.000  Ne
  He171    1.0000 0.08165  0.07511  0.83424  Biso   1.000  He
  He172    1.0000 0.11074  0.06354  0.84795  Biso   1.000  He
  Ne172    1.0000 0.11815  0.06990  0.88037  Biso   1.000  Ne
  Ne173    1.0000 0.71156  0.35141  0.76719  Biso   1.000  Ne
  He173    1.0000 0.69995  0.34890  0.79583  Biso   1.000  He
  He174    1.0000 0.67882  0.32375  0.79630  Biso   1.000  He
  Ne174    1.0000 0.67304  0.31161  0.82656  Biso   1.000  Ne
  Ne175    1.0000 0.29065  0.14636  0.58005  Biso   1.000  Ne
  He175    1.0000 0.26768  0.13227  0.59939  Biso   1.000  He
  He176    1.0000 0.28065  0.11196  0.62539  Biso   1.000  He
  Ne176    1.0000 0.25717  0.09291  0.63774  Biso   1.000  Ne
  Ne177    1.0000 0.96529  0.77149  0.13556  Biso   1.000  Ne
  He177    1.0000 0.93869  0.75800  0.14941  Biso   1.000  He
  He178    1.0000 0.94537  0.74631  0.17921  Biso   1.000  He
  Ne178    1.0000 0.91753  0.74155  0.19513  Biso   1.000  Ne
  Ne179    1.0000 0.94842  0.14067  0.23764  Biso   1.000  Ne
  He179    1.0000 0.93775  0.13949  0.20678  Biso   1.000  He
  He180    1.0000 0.93488  0.17083  0.19230  Biso   1.000  He
  Ne180    1.0000 0.91990  0.16851  0.16049  Biso   1.000  Ne
  Ne181    1.0000 0.09487  0.35796  0.70008  Biso   1.000  Ne
  He181    1.0000 0.12154  0.36791  0.71711  Biso   1.000  He
  He182    1.0000 0.14414  0.38552  0.70270  Biso   1.000  He
  Ne182    1.0000 0.17140  0.39028  0.71698  Biso   1.000  Ne
  Ne183    1.0000 0.96216  0.74761  0.39960  Biso   1.000  Ne
  He183    1.0000 0.95313  0.73023  0.37163  Biso   1.000  He
  He184    1.0000 0.95045  0.74835  0.34546  Biso   1.000  He
  Ne184    1.0000 0.93810  0.73192  0.31992  Biso   1.000  Ne
  Ne185    1.0000 0.35415  0.38864  0.19881  Biso   1.000  Ne
  He185    1.0000 0.33948  0.39672  0.22708  Biso   1.000  He
  He186    1.0000 0.32717  0.37366  0.24317  Biso   1.000  He
  Ne186    1.0000 0.31335  0.38070  0.27145  Biso   1.000  Ne
  Ne187    1.0000 0.71084  0.64204  0.26144  Biso   1.000  Ne
  He187    1.0000 0.70057  0.60984  0.26189  Biso   1.000  He
  He188    1.0000 0.70140  0.60063  0.29196  Biso   1.000  He
  Ne188    1.0000 0.68860  0.56999  0.29762  Biso   1.000  Ne
  Ne189    1.0000 0.19228  0.32376  0.18860  Biso   1.000  Ne
  He189    1.0000 0.19343  0.35603  0.17830  Biso   1.000  He
  He190    1.0000 0.18554  0.37485  0.20099  Biso   1.000  He
  Ne190    1.0000 0.18010  0.40730  0.19284  Biso   1.000  Ne
  Ne191    1.0000 0.43580  0.10192  0.45430  Biso   1.000  Ne
  He191    1.0000 0.45235  0.07472  0.46435  Biso   1.000  He
  He192    1.0000 0.44013  0.04630  0.45831  Biso   1.000  He
  Ne192    1.0000 0.46017  0.02067  0.46318  Biso   1.000  Ne
  Ne193    1.0000 0.00794  0.07058  0.07606  Biso   1.000  Ne
  He193    1.0000 0.98099  0.05301  0.06815  Biso   1.000  He
  He194    1.0000 0.98673  0.02838  0.04953  Biso   1.000  He
  Ne194    1.0000 0.98272  0.99841  0.06436  Biso   1.000  Ne
  Ne195    1.0000 0.25214  0.32402  0.09729  Biso   1.000  Ne
  He195    1.0000 0.24537  0.35248  0.07959  Biso   1.000  He
  He196    1.0000 0.23322  0.37394  0.09768  Biso   1.000  He
  Ne196    1.0000 0.21719  0.39907  0.08215  Biso   1.000  Ne
  Ne197    1.0000 0.61823  0.63670  0.11713  Biso   1.000  Ne
  He197    1.0000 0.65082  0.63989  0.12023  Biso   1.000  He
  He198    1.0000 0.66347  0.66025  0.14294  Biso   1.000  He
  Ne198    1.0000 0.69651  0.65918  0.14605  Biso   1.000  Ne
  Ne199    1.0000 0.32013  0.59448  0.16019  Biso   1.000  Ne
  He199    1.0000 0.33719  0.61098  0.13606  Biso   1.000  He
  He200    1.0000 0.37028  0.60911  0.13847  Biso   1.000  He
  Ne200    1.0000 0.38253  0.58192  0.12071  Biso   1.000  Ne
  Ne201    1.0000 0.12826  0.76346  0.16353  Biso   1.000  Ne
  He201    1.0000 0.14211  0.79353  0.15903  Biso   1.000  He
  He202    1.0000 0.17477  0.79179  0.16547  Biso   1.000  He
  Ne202    1.0000 0.19435  0.81865  0.16075  Biso   1.000  Ne
  Ne203    1.0000 0.61365  0.24477  0.69018  Biso   1.000  Ne
  He203    1.0000 0.61980  0.21838  0.67418  Biso   1.000  He
  He204    1.0000 0.59726  0.19499  0.67873  Biso   1.000  He
  Ne204    1.0000 0.60445  0.16742  0.66133  Biso   1.000  Ne
  Ne205    1.0000 0.60247  0.70936  0.63344  Biso   1.000  Ne
  He205    1.0000 0.60445  0.73781  0.61689  Biso   1.000  He
  He206    1.0000 0.61011  0.76140  0.63640  Biso   1.000  He
  Ne206    1.0000 0.61270  0.79208  0.62227  Biso   1.000  Ne
  Ne207    1.0000 0.08135  0.43226  0.47076  Biso   1.000  Ne
  He207    1.0000 0.04985  0.43783  0.47273  Biso   1.000  He
  He208    1.0000 0.03771  0.46773  0.46594  Biso   1.000  He
  Ne208    1.0000 0.00673  0.47365  0.47286  Biso   1.000  Ne
  Ne209    1.0000 0.39820  0.71152  0.97614  Biso   1.000  Ne
  He209    1.0000 0.40388  0.68229  0.96407  Biso   1.000  He
  He210    1.0000 0.43501  0.67671  0.96447  Biso   1.000  He
  Ne210    1.0000 0.44052  0.64991  0.94963  Biso   1.000  Ne
  Ne211    1.0000 0.40453  0.17448  0.60442  Biso   1.000  Ne
  He211    1.0000 0.38245  0.14985  0.59847  Biso   1.000  He
  He212    1.0000 0.38858  0.12246  0.61234  Biso   1.000  He
  Ne212    1.0000 0.36746  0.09825  0.60670  Biso   1.000  Ne
  Ne213    1.0000 0.08967  0.22049  0.89349  Biso   1.000  Ne
  He213    1.0000 0.11270  0.20607  0.91297  Biso   1.000  He
  He214    1.0000 0.12187  0.17560  0.90357  Biso   1.000  He
  Ne214    1.0000 0.14549  0.16075  0.92699  Biso   1.000  Ne
  Ne215    1.0000 0.82807  0.12117  0.95064  Biso   1.000  Ne
  He215    1.0000 0.85168  0.14473  0.94750  Biso   1.000  He
  He216    1.0000 0.87919  0.13619  0.93301  Biso   1.000  He
  Ne216    1.0000 0.89739  0.16229  0.92380  Biso   1.000  Ne
  Ne217    1.0000 0.49196  0.50146  0.11979  Biso   1.000  Ne
  He217    1.0000 0.50547  0.51996  0.09526  Biso   1.000  He
  He218    1.0000 0.49899  0.55030  0.09867  Biso   1.000  He
  Ne218    1.0000 0.51491  0.57042  0.07654  Biso   1.000  Ne
  Ne219    1.0000 0.96794  0.92466  0.10871  Biso   1.000  Ne
  He219    1.0000 0.96473  0.90361  0.13498  Biso   1.000  He
  He220    1.0000 0.94822  0.91593  0.15886  Biso   1.000  He
  Ne220    1.0000 0.94379  0.89536  0.18243  Biso   1.000  Ne
  Ne221    1.0000 0.42844  0.79336  0.06360  Biso   1.000  Ne
  He221    1.0000 0.45604  0.80241  0.08328  Biso   1.000  He
  He222    1.0000 0.47923  0.77793  0.08569  Biso   1.000  He
  Ne222    1.0000 0.50552  0.78450  0.10492  Biso   1.000  Ne
  Ne223    1.0000 0.60036  0.37772  0.83652  Biso   1.000  Ne
  He223    1.0000 0.60584  0.36519  0.80462  Biso   1.000  He
  He224    1.0000 0.59862  0.38705  0.78168  Biso   1.000  He
  Ne224    1.0000 0.59771  0.37686  0.75023  Biso   1.000  Ne
  Ne225    1.0000 0.82417  0.32224  0.46307  Biso   1.000  Ne
  He225    1.0000 0.83262  0.35081  0.45031  Biso   1.000  He
  He226    1.0000 0.83019  0.37652  0.46824  Biso   1.000  He
  Ne226    1.0000 0.83789  0.40405  0.45102  Biso   1.000  Ne
  Ne227    1.0000 0.56031  0.90864  0.54376  Biso   1.000  Ne
  He227    1.0000 0.55133  0.91678  0.51189  Biso   1.000  He
  He228    1.0000 0.52453  0.90417  0.50220  Biso   1.000  He
  Ne228    1.0000 0.51851  0.90981  0.47072  Biso   1.000  Ne
  Ne229    1.0000 0.05523  0.56372  0.46219  Biso   1.000  Ne
  He229    1.0000 0.08716  0.55608  0.45916  Biso   1.000  He
  He230    1.0000 0.10136  0.56765  0.43356  Biso   1.000  He
  Ne230    1.0000 0.13250  0.56294  0.43152  Biso   1.000  Ne
  Ne231    1.0000 0.84472  0.02625  0.42222  Biso   1.000  Ne
  He231    1.0000 0.83088  0.03361  0.39343  Biso   1.000  He
  He232    1.0000 0.83243  0.06603  0.38893  Biso   1.000  He
  Ne232    1.0000 0.81882  0.07570  0.36159  Biso   1.000  Ne
  Ne233    1.0000 0.81786  0.41275  0.05246  Biso   1.000  Ne
  He233    1.0000 0.82103  0.44054  0.07171  Biso   1.000  He
  He234    1.0000 0.81094  0.47070  0.05475  Biso   1.000  He
  Ne234    1.0000 0.81575  0.49576  0.07379  Biso   1.000  Ne
  Ne235    1.0000 0.64563  0.12045  0.74313  Biso   1.000  Ne
  He235    1.0000 0.64374  0.09804  0.72172  Biso   1.000  He
  He236    1.0000 0.65464  0.06679  0.72962  Biso   1.000  He
  Ne236    1.0000 0.64338  0.04503  0.70733  Biso   1.000  Ne
  Ne237    1.0000 0.83433  0.79812  0.94992  Biso   1.000  Ne
  He237    1.0000 0.83091  0.82707  0.96480  Biso   1.000  He
  He238    1.0000 0.84707  0.85150  0.94878  Biso   1.000  He
  Ne238    1.0000 0.87545  0.86540  0.96308  Biso   1.000  Ne
  Ne239    1.0000 0.93002  0.93583  0.02266  Biso   1.000  Ne
  He239    1.0000 0.95009  0.91722  0.00172  Biso   1.000  He
  He240    1.0000 0.94732  0.92487  0.96894  Biso   1.000  He
  Ne240    1.0000 0.97303  0.91601  0.95035  Biso   1.000  Ne
  Ne241    1.0000 0.16140  0.86573  0.87194  Biso   1.000  Ne
  He241    1.0000 0.13093  0.87490  0.88187  Biso   1.000  He
  He242    1.0000 0.13050  0.90578  0.89353  Biso   1.000  He
  Ne242    1.0000 0.10371  0.91487  0.90958  Biso   1.000  Ne
  Ne243    1.0000 0.86233  0.08242  0.49468  Biso   1.000  Ne
  He243    1.0000 0.83362  0.10037  0.49597  Biso   1.000  He
  He244    1.0000 0.83825  0.13385  0.48768  Biso   1.000  He
  Ne244    1.0000 0.80936  0.14887  0.48159  Biso   1.000  Ne
  Ne245    1.0000 0.52423  0.01883  0.51045  Biso   1.000  Ne
  He245    1.0000 0.55517  0.01523  0.52837  Biso   1.000  He
  He246    1.0000 0.57857  0.03838  0.51768  Biso   1.000  He
  Ne246    1.0000 0.60850  0.03666  0.53109  Biso   1.000  Ne
  Ne247    1.0000 0.28902  0.92532  0.67305  Biso   1.000  Ne
  He247    1.0000 0.31894  0.91232  0.68481  Biso   1.000  He
  He248    1.0000 0.34417  0.92505  0.67283  Biso   1.000  He
  Ne248    1.0000 0.37142  0.92109  0.68603  Biso   1.000  Ne
  Ne249    1.0000 0.94882  0.41745  0.41549  Biso   1.000  Ne
  He249    1.0000 0.93679  0.38662  0.41412  Biso   1.000  He
  He250    1.0000 0.93762  0.37367  0.44370  Biso   1.000  He
  Ne250    1.0000 0.93428  0.34177  0.44705  Biso   1.000  Ne
  Ne251    1.0000 0.62813  0.23960  0.78756  Biso   1.000  Ne
  He251    1.0000 0.61571  0.20845  0.78940  Biso   1.000  He
  He252    1.0000 0.59987  0.20221  0.81864  Biso   1.000  He
  Ne252    1.0000 0.59189  0.17030  0.82135  Biso   1.000  Ne
  Ne253    1.0000 0.09285  0.26291  0.20037  Biso   1.000  Ne
  He253    1.0000 0.08766  0.22909  0.20090  Biso   1.000  He
  He254    1.0000 0.11681  0.21109  0.19505  Biso   1.000  He
  Ne254    1.0000 0.11395  0.17876  0.20145  Biso   1.000  Ne
  Ne255    1.0000 0.07754  0.12046  0.10403  Biso   1.000  Ne
  He255    1.0000 0.10977  0.11160  0.10360  Biso   1.000  He
  He256    1.0000 0.12579  0.11447  0.13428  Biso   1.000  He
  Ne256    1.0000 0.15967  0.11115  0.13447  Biso   1.000  Ne
  Ne257    1.0000 0.73076  0.39240  0.88639  Biso   1.000  Ne
  He257    1.0000 0.74263  0.38174  0.91647  Biso   1.000  He
  He258    1.0000 0.72339  0.39071  0.94226  Biso   1.000  He
  Ne258    1.0000 0.73515  0.37563  0.96999  Biso   1.000  Ne
  Ne259    1.0000 0.77031  0.58478  0.43232  Biso   1.000  Ne
  He259    1.0000 0.75621  0.55881  0.42004  Biso   1.000  He
  He260    1.0000 0.74011  0.56321  0.39153  Biso   1.000  He
  Ne260    1.0000 0.72228  0.53859  0.38436  Biso   1.000  Ne
  Ne261    1.0000 0.97591  0.38013  0.83126  Biso   1.000  Ne
  He261    1.0000 0.95080  0.39088  0.80706  Biso   1.000  He
  He262    1.0000 0.92859  0.36861  0.80624  Biso   1.000  He
  Ne262    1.0000 0.90335  0.37690  0.78455  Biso   1.000  Ne
  Ne263    1.0000 0.94214  0.43485  0.52714  Biso   1.000  Ne
  He263    1.0000 0.97332  0.42322  0.53077  Biso   1.000  He
  He264    1.0000 0.98604  0.42810  0.55893  Biso   1.000  He
  Ne264    1.0000 0.01669  0.41525  0.56490  Biso   1.000  Ne
  Ne265    1.0000 0.14878  0.40343  0.46387  Biso   1.000  Ne
  He265    1.0000 0.17263  0.38445  0.45128  Biso   1.000  He
  He266    1.0000 0.19793  0.40377  0.43870  Biso   1.000  He
  Ne266    1.0000 0.22109  0.38642  0.42363  Biso   1.000  Ne
  Ne267    1.0000 0.93164  0.52905  0.58392  Biso   1.000  Ne
  He267    1.0000 0.96091  0.53241  0.59857  Biso   1.000  He
  He268    1.0000 0.96165  0.55321  0.62050  Biso   1.000  He
  Ne268    1.0000 0.99130  0.55989  0.63503  Biso   1.000  Ne
  Ne269    1.0000 0.04643  0.96362  0.09959  Biso   1.000  Ne
  He269    1.0000 0.06460  0.98987  0.10125  Biso   1.000  He
  He270    1.0000 0.05556  0.01180  0.12241  Biso   1.000  He
  Ne270    1.0000 0.07167  0.04009  0.12407  Biso   1.000  Ne
  Ne271    1.0000 0.44504  0.30728  0.95449  Biso   1.000  Ne
  He271    1.0000 0.45098  0.30734  0.92233  Biso   1.000  He
  He272    1.0000 0.42478  0.29757  0.90533  Biso   1.000  He
  Ne272    1.0000 0.42663  0.29942  0.87284  Biso   1.000  Ne
  Ne273    1.0000 0.46344  0.72330  0.16530  Biso   1.000  Ne
  He273    1.0000 0.45654  0.68928  0.16267  Biso   1.000  He
  He274    1.0000 0.45401  0.67506  0.13149  Biso   1.000  He
  Ne274    1.0000 0.44865  0.64189  0.13419  Biso   1.000  Ne
  Ne275    1.0000 0.16761  0.89703  0.98210  Biso   1.000  Ne
  He275    1.0000 0.17407  0.86610  0.97227  Biso   1.000  He
  He276    1.0000 0.14985  0.84226  0.97531  Biso   1.000  He
  Ne276    1.0000 0.16146  0.81271  0.96852  Biso   1.000  Ne
  Ne277    1.0000 0.65102  0.87654  0.63779  Biso   1.000  Ne
  He277    1.0000 0.67511  0.87892  0.61238  Biso   1.000  He
  He278    1.0000 0.70883  0.87710  0.61962  Biso   1.000  He
  Ne278    1.0000 0.71927  0.84983  0.61650  Biso   1.000  Ne
  Ne279    1.0000 0.26175  0.43198  0.15914  Biso   1.000  Ne
  He279    1.0000 0.28609  0.41252  0.14994  Biso   1.000  He
  He280    1.0000 0.30734  0.42397  0.12787  Biso   1.000  He
  Ne280    1.0000 0.33143  0.40429  0.12102  Biso   1.000  Ne
