data_image0
_cell_length_a       47.4878
_cell_length_b       46.6208
_cell_length_c       46.6196
_cell_angle_alpha    90
_cell_angle_beta     90
_cell_angle_gamma    90

_symmetry_space_group_name_H-M    "P 1"
_symmetry_int_tables_number       1

loop_
  _symmetry_equiv_pos_as_xyz
  'x, y, z'

loop_
  _atom_site_label
  _atom_site_occupancy
  _atom_site_fract_x
  _atom_site_fract_y
  _atom_site_fract_z
  _atom_site_thermal_displace_type
  _atom_site_B_iso_or_equiv
  _atom_site_type_symbol
  Ne1      1.0000 0.09200  0.72108  0.40849  Biso   1.000  Ne
  He1      1.0000 0.12578  0.72186  0.40673  Biso   1.000  He
  He2      1.0000 0.14160  0.69821  0.42669  Biso   1.000  He
  Ne2      1.0000 0.17205  0.69859  0.42266  Biso   1.000  Ne
  Ne3      1.0000 0.37239  0.11769  0.42750  Biso   1.000  Ne
  He3      1.0000 0.38260  0.11350  0.39587  Biso   1.000  He
  He4      1.0000 0.40765  0.08862  0.38925  Biso   1.000  He
  Ne4      1.0000 0.41501  0.08391  0.35766  Biso   1.000  Ne
  Ne5      1.0000 0.25080  0.82818  0.44825  Biso   1.000  Ne
  He5      1.0000 0.22739  0.83935  0.42897  Biso   1.000  He
  He6      1.0000 0.23470  0.86858  0.41510  Biso   1.000  He
  Ne6      1.0000 0.21375  0.87543  0.38905  Biso   1.000  Ne
  Ne7      1.0000 0.60330  0.41873  0.12352  Biso   1.000  Ne
  He7      1.0000 0.59271  0.39301  0.14500  Biso   1.000  He
  He8      1.0000 0.58308  0.40447  0.17351  Biso   1.000  He
  Ne8      1.0000 0.57065  0.37730  0.18905  Biso   1.000  Ne
  Ne9      1.0000 0.89767  0.13976  0.93120  Biso   1.000  Ne
  He9      1.0000 0.92466  0.12312  0.92094  Biso   1.000  He
  He10     1.0000 0.91884  0.09112  0.90716  Biso   1.000  He
  Ne10     1.0000 0.91273  0.08666  0.87396  Biso   1.000  Ne
  Ne11     1.0000 0.85989  0.89207  0.91429  Biso   1.000  Ne
  He11     1.0000 0.88959  0.89027  0.92363  Biso   1.000  He
  He12     1.0000 0.91170  0.90778  0.90421  Biso   1.000  He
  Ne12     1.0000 0.94509  0.90367  0.90751  Biso   1.000  Ne
  Ne13     1.0000 0.57824  0.07198  0.59426  Biso   1.000  Ne
  He13     1.0000 0.59575  0.09901  0.59547  Biso   1.000  He
  He14     1.0000 0.58121  0.12414  0.58403  Biso   1.000  He
  Ne14     1.0000 0.59555  0.15215  0.58299  Biso   1.000  Ne
  Ne15     1.0000 0.13618  0.93486  0.94711  Biso   1.000  Ne
  He15     1.0000 0.10501  0.94361  0.94025  Biso   1.000  He
  He16     1.0000 0.08328  0.91977  0.95193  Biso   1.000  He
  Ne16     1.0000 0.05290  0.92766  0.94786  Biso   1.000  Ne
  Ne17     1.0000 0.43169  0.87782  0.59762  Biso   1.000  Ne
  He17     1.0000 0.40052  0.89010  0.59893  Biso   1.000  He
  He18     1.0000 0.37993  0.86399  0.60587  Biso   1.000  He
  Ne18     1.0000 0.34716  0.87223  0.60891  Biso   1.000  Ne
  Ne19     1.0000 0.18529  0.82917  0.10465  Biso   1.000  Ne
  He19     1.0000 0.15602  0.83843  0.09281  Biso   1.000  He
  He20     1.0000 0.13076  0.81767  0.10020  Biso   1.000  He
  Ne20     1.0000 0.09979  0.82540  0.08893  Biso   1.000  Ne
