data_image0
_cell_length_a       46.5507
_cell_length_b       46.6569
_cell_length_c       46.5689
_cell_angle_alpha    90
_cell_angle_beta     90
_cell_angle_gamma    90

_symmetry_space_group_name_H-M    "P 1"
_symmetry_int_tables_number       1

loop_
  _symmetry_equiv_pos_as_xyz
  'x, y, z'

loop_
  _atom_site_label
  _atom_site_occupancy
  _atom_site_fract_x
  _atom_site_fract_y
  _atom_site_fract_z
  _atom_site_thermal_displace_type
  _atom_site_B_iso_or_equiv
  _atom_site_type_symbol
  Ne1      1.0000 0.62080  0.54522  0.17401  Biso   1.000  Ne
  He1      1.0000 0.62207  0.54408  0.20592  Biso   1.000  He
  He2      1.0000 0.61212  0.57193  0.21958  Biso   1.000  He
  Ne2      1.0000 0.61007  0.57257  0.25374  Biso   1.000  Ne
  Ne3      1.0000 0.10029  0.84156  0.79415  Biso   1.000  Ne
  He3      1.0000 0.10134  0.87220  0.78072  Biso   1.000  He
  He4      1.0000 0.09324  0.87401  0.75181  Biso   1.000  He
  Ne4      1.0000 0.08432  0.90230  0.74063  Biso   1.000  Ne
  Ne5      1.0000 0.14929  0.03703  0.81998  Biso   1.000  Ne
  He5      1.0000 0.12701  0.04947  0.83896  Biso   1.000  He
  He6      1.0000 0.12107  0.08339  0.83103  Biso   1.000  He
  Ne6      1.0000 0.09040  0.09372  0.84934  Biso   1.000  Ne
  Ne7      1.0000 0.25363  0.03648  0.14684  Biso   1.000  Ne
  He7      1.0000 0.22819  0.04346  0.12633  Biso   1.000  He
  He8      1.0000 0.19712  0.04741  0.13984  Biso   1.000  He
  Ne8      1.0000 0.17289  0.05083  0.11697  Biso   1.000  Ne
  Ne9      1.0000 0.89639  0.65628  0.39791  Biso   1.000  Ne
  He9      1.0000 0.92349  0.63995  0.40165  Biso   1.000  He
  He10     1.0000 0.91729  0.60885  0.40768  Biso   1.000  He
  Ne10     1.0000 0.94539  0.58974  0.41447  Biso   1.000  Ne
  Ne11     1.0000 0.58754  0.27164  0.94854  Biso   1.000  Ne
  He11     1.0000 0.59991  0.24012  0.94938  Biso   1.000  He
  He12     1.0000 0.62899  0.23510  0.93555  Biso   1.000  He
  Ne12     1.0000 0.62326  0.22962  0.90224  Biso   1.000  Ne
  Ne13     1.0000 0.91788  0.52787  0.58487  Biso   1.000  Ne
  He13     1.0000 0.88589  0.53266  0.59101  Biso   1.000  He
  He14     1.0000 0.88081  0.53775  0.62174  Biso   1.000  He
  Ne14     1.0000 0.84728  0.54002  0.62916  Biso   1.000  Ne
  Ne15     1.0000 0.10594  0.52133  0.34489  Biso   1.000  Ne
  He15     1.0000 0.13612  0.51956  0.36214  Biso   1.000  He
  He16     1.0000 0.16082  0.52767  0.34230  Biso   1.000  He
  Ne16     1.0000 0.18921  0.52793  0.35762  Biso   1.000  Ne
  Ne17     1.0000 0.94028  0.62174  0.64755  Biso   1.000  Ne
  He17     1.0000 0.92206  0.61094  0.62190  Biso   1.000  He
  He18     1.0000 0.89083  0.62404  0.62899  Biso   1.000  He
  Ne18     1.0000 0.86537  0.61656  0.60829  Biso   1.000  Ne
  Ne19     1.0000 0.59204  0.89647  0.55837  Biso   1.000  Ne
  He19     1.0000 0.58734  0.87396  0.58480  Biso   1.000  He
  He20     1.0000 0.59125  0.88903  0.61407  Biso   1.000  He
  Ne20     1.0000 0.59051  0.86769  0.63751  Biso   1.000  Ne
  Ne21     1.0000 0.24547  0.04860  0.46269  Biso   1.000  Ne
  He21     1.0000 0.27615  0.05708  0.44766  Biso   1.000  He
  He22     1.0000 0.29818  0.06263  0.47076  Biso   1.000  He
  Ne22     1.0000 0.33071  0.06794  0.46099  Biso   1.000  Ne
  Ne23     1.0000 0.35325  0.05920  0.36876  Biso   1.000  Ne
  He23     1.0000 0.38331  0.06876  0.37956  Biso   1.000  He
  He24     1.0000 0.40685  0.06967  0.35534  Biso   1.000  He
  Ne24     1.0000 0.43638  0.07613  0.36512  Biso   1.000  Ne
  Ne25     1.0000 0.41697  0.74727  0.39923  Biso   1.000  Ne
  He25     1.0000 0.42796  0.77298  0.41701  Biso   1.000  He
  He26     1.0000 0.40521  0.79465  0.41703  Biso   1.000  He
  Ne26     1.0000 0.41338  0.82154  0.43854  Biso   1.000  Ne
  Ne27     1.0000 0.58446  0.04723  0.34021  Biso   1.000  Ne
  He27     1.0000 0.58450  0.07926  0.34853  Biso   1.000  He
  He28     1.0000 0.60957  0.08854  0.36574  Biso   1.000  He
  Ne28     1.0000 0.61014  0.12068  0.37409  Biso   1.000  Ne
  Ne29     1.0000 0.16470  0.63773  0.32917  Biso   1.000  Ne
  He29     1.0000 0.15011  0.62795  0.35838  Biso   1.000  He
  He30     1.0000 0.12318  0.60706  0.35356  Biso   1.000  He
  Ne30     1.0000 0.10660  0.59794  0.38050  Biso   1.000  Ne
  Ne31     1.0000 0.43936  0.86344  0.66145  Biso   1.000  Ne
  He31     1.0000 0.41935  0.85983  0.68892  Biso   1.000  He
  He32     1.0000 0.42130  0.88277  0.71445  Biso   1.000  He
  Ne32     1.0000 0.40094  0.87843  0.74149  Biso   1.000  Ne
  Ne33     1.0000 0.08795  0.89183  0.96256  Biso   1.000  Ne
  He33     1.0000 0.09693  0.87302  0.93655  Biso   1.000  He
  He34     1.0000 0.08841  0.89050  0.90736  Biso   1.000  He
  Ne34     1.0000 0.10057  0.87559  0.87861  Biso   1.000  Ne
  Ne35     1.0000 0.31673  0.88398  0.29258  Biso   1.000  Ne
  He35     1.0000 0.33361  0.86650  0.31140  Biso   1.000  He
  He36     1.0000 0.36339  0.88264  0.32140  Biso   1.000  He
  Ne36     1.0000 0.38465  0.86180  0.33885  Biso   1.000  Ne
  Ne37     1.0000 0.33473  0.54857  0.12836  Biso   1.000  Ne
  He37     1.0000 0.35133  0.53705  0.10496  Biso   1.000  He
  He38     1.0000 0.38400  0.53102  0.11207  Biso   1.000  He
  Ne38     1.0000 0.40415  0.52486  0.08718  Biso   1.000  Ne
  Ne39     1.0000 0.25852  0.79672  0.09088  Biso   1.000  Ne
  He39     1.0000 0.23844  0.79177  0.11875  Biso   1.000  He
  He40     1.0000 0.23561  0.75789  0.12498  Biso   1.000  He
  Ne40     1.0000 0.21543  0.75323  0.15229  Biso   1.000  Ne
  Ne41     1.0000 0.56131  0.50753  0.98188  Biso   1.000  Ne
  He41     1.0000 0.55016  0.53372  0.99962  Biso   1.000  He
  He42     1.0000 0.55557  0.53404  0.03183  Biso   1.000  He
  Ne42     1.0000 0.52972  0.53090  0.05161  Biso   1.000  Ne
  Ne43     1.0000 0.57806  0.24655  0.10630  Biso   1.000  Ne
  He43     1.0000 0.59598  0.27269  0.11547  Biso   1.000  He
  He44     1.0000 0.58384  0.30258  0.10384  Biso   1.000  He
  Ne44     1.0000 0.60265  0.32791  0.11318  Biso   1.000  Ne
  Ne45     1.0000 0.35903  0.15791  0.45624  Biso   1.000  Ne
  He45     1.0000 0.39242  0.15412  0.45593  Biso   1.000  He
  He46     1.0000 0.40060  0.12227  0.45859  Biso   1.000  He
  Ne46     1.0000 0.43384  0.11531  0.45673  Biso   1.000  Ne
  Ne47     1.0000 0.11160  0.50744  0.45202  Biso   1.000  Ne
  He47     1.0000 0.12127  0.53351  0.43818  Biso   1.000  He
  He48     1.0000 0.15075  0.54212  0.44537  Biso   1.000  He
  Ne48     1.0000 0.16427  0.57157  0.43522  Biso   1.000  Ne
  Ne49     1.0000 0.10796  0.75724  0.09476  Biso   1.000  Ne
  He49     1.0000 0.13702  0.77346  0.09755  Biso   1.000  He
  He50     1.0000 0.13721  0.80712  0.09181  Biso   1.000  He
  Ne50     1.0000 0.16635  0.81901  0.08568  Biso   1.000  Ne
  Ne51     1.0000 0.62796  0.15451  0.74172  Biso   1.000  Ne
  He51     1.0000 0.61732  0.12517  0.75567  Biso   1.000  He
  He52     1.0000 0.58682  0.12539  0.76973  Biso   1.000  He
  Ne52     1.0000 0.57426  0.09610  0.77841  Biso   1.000  Ne
  Ne53     1.0000 0.96806  0.39017  0.47372  Biso   1.000  Ne
  He53     1.0000 0.96421  0.41407  0.49667  Biso   1.000  He
  He54     1.0000 0.93661  0.42961  0.49275  Biso   1.000  He
  Ne54     1.0000 0.93062  0.45347  0.51612  Biso   1.000  Ne
  Ne55     1.0000 0.07188  0.86190  0.06456  Biso   1.000  Ne
  He55     1.0000 0.07709  0.88901  0.08217  Biso   1.000  He
  He56     1.0000 0.04925  0.90841  0.08671  Biso   1.000  He
  Ne56     1.0000 0.05454  0.93991  0.10109  Biso   1.000  Ne
  Ne57     1.0000 0.31144  0.54688  0.86162  Biso   1.000  Ne
  He57     1.0000 0.31943  0.54085  0.89267  Biso   1.000  He
  He58     1.0000 0.29695  0.54713  0.91456  Biso   1.000  He
  Ne58     1.0000 0.30609  0.54156  0.94547  Biso   1.000  Ne
  Ne59     1.0000 0.21345  0.38502  0.72769  Biso   1.000  Ne
  He59     1.0000 0.19272  0.36025  0.71368  Biso   1.000  He
  He60     1.0000 0.17703  0.36864  0.68462  Biso   1.000  He
  Ne60     1.0000 0.14140  0.37689  0.68991  Biso   1.000  Ne
  Ne61     1.0000 0.59059  0.28493  0.21821  Biso   1.000  Ne
  He61     1.0000 0.60325  0.31693  0.21901  Biso   1.000  He
  He62     1.0000 0.59199  0.33821  0.19854  Biso   1.000  He
  Ne62     1.0000 0.59724  0.37055  0.20513  Biso   1.000  Ne
  Ne63     1.0000 0.91535  0.37822  0.59676  Biso   1.000  Ne
  He63     1.0000 0.91429  0.37952  0.63160  Biso   1.000  He
  He64     1.0000 0.88381  0.37325  0.64191  Biso   1.000  He
  Ne64     1.0000 0.87668  0.36448  0.67214  Biso   1.000  Ne
  Ne65     1.0000 0.30342  0.85844  0.40834  Biso   1.000  Ne
  He65     1.0000 0.33103  0.87728  0.40585  Biso   1.000  He
  He66     1.0000 0.34861  0.88186  0.43428  Biso   1.000  He
  Ne66     1.0000 0.37583  0.89838  0.42553  Biso   1.000  Ne
  Ne67     1.0000 0.44810  0.17272  0.60614  Biso   1.000  Ne
  He67     1.0000 0.43415  0.17480  0.63744  Biso   1.000  He
  He68     1.0000 0.44463  0.14910  0.65705  Biso   1.000  He
  Ne68     1.0000 0.42695  0.14058  0.68390  Biso   1.000  Ne
  Ne69     1.0000 0.52619  0.44867  0.10341  Biso   1.000  Ne
  He69     1.0000 0.49836  0.43705  0.08882  Biso   1.000  He
  He70     1.0000 0.49668  0.40366  0.09008  Biso   1.000  He
  Ne70     1.0000 0.46619  0.39583  0.07848  Biso   1.000  Ne
  Ne71     1.0000 0.40575  0.19231  0.26166  Biso   1.000  Ne
  He71     1.0000 0.40652  0.21789  0.24015  Biso   1.000  He
  He72     1.0000 0.38815  0.24622  0.24272  Biso   1.000  He
  Ne72     1.0000 0.36436  0.25008  0.21897  Biso   1.000  Ne
  Ne73     1.0000 0.33289  0.80885  0.59401  Biso   1.000  Ne
  He73     1.0000 0.34029  0.83829  0.59224  Biso   1.000  He
  He74     1.0000 0.37303  0.84273  0.58748  Biso   1.000  He
  Ne74     1.0000 0.37596  0.87453  0.58684  Biso   1.000  Ne
  Ne75     1.0000 0.92377  0.90706  0.98538  Biso   1.000  Ne
  He75     1.0000 0.95303  0.89633  0.00079  Biso   1.000  He
  He76     1.0000 0.94548  0.88157  0.02848  Biso   1.000  He
  Ne76     1.0000 0.97212  0.87299  0.04761  Biso   1.000  Ne
  Ne77     1.0000 0.71994  0.35102  0.09549  Biso   1.000  Ne
  He77     1.0000 0.71419  0.32038  0.10377  Biso   1.000  He
  He78     1.0000 0.68433  0.31026  0.10963  Biso   1.000  He
  Ne78     1.0000 0.68409  0.27763  0.11997  Biso   1.000  Ne
  Ne79     1.0000 0.19116  0.85944  0.86394  Biso   1.000  Ne
  He79     1.0000 0.19960  0.88228  0.88616  Biso   1.000  He
  He80     1.0000 0.18020  0.87790  0.91286  Biso   1.000  He
  Ne80     1.0000 0.19103  0.89501  0.94020  Biso   1.000  Ne
  Ne81     1.0000 0.70519  0.09935  0.63922  Biso   1.000  Ne
  He81     1.0000 0.73068  0.08784  0.61675  Biso   1.000  He
  He82     1.0000 0.75211  0.11071  0.60969  Biso   1.000  He
  Ne82     1.0000 0.77317  0.10120  0.58450  Biso   1.000  Ne
  Ne83     1.0000 0.10223  0.71981  0.37077  Biso   1.000  Ne
  He83     1.0000 0.11256  0.69188  0.38365  Biso   1.000  He
  He84     1.0000 0.11136  0.69261  0.41532  Biso   1.000  He
  Ne84     1.0000 0.12550  0.66535  0.42617  Biso   1.000  Ne
  Ne85     1.0000 0.11815  0.79665  0.18811  Biso   1.000  Ne
  He85     1.0000 0.11903  0.82315  0.16617  Biso   1.000  He
  He86     1.0000 0.10590  0.84913  0.18025  Biso   1.000  He
  Ne86     1.0000 0.09948  0.87465  0.15944  Biso   1.000  Ne
  Ne87     1.0000 0.13524  0.55541  0.61787  Biso   1.000  Ne
  He87     1.0000 0.11458  0.55247  0.64517  Biso   1.000  He
  He88     1.0000 0.12956  0.54239  0.67636  Biso   1.000  He
  Ne88     1.0000 0.10824  0.53950  0.70316  Biso   1.000  Ne
  Ne89     1.0000 0.21536  0.74592  0.59551  Biso   1.000  Ne
  He89     1.0000 0.23830  0.72329  0.58673  Biso   1.000  He
  He90     1.0000 0.26864  0.73205  0.59510  Biso   1.000  He
  Ne90     1.0000 0.29079  0.71002  0.58592  Biso   1.000  Ne
  Ne91     1.0000 0.55878  0.99677  0.42120  Biso   1.000  Ne
  He91     1.0000 0.57481  0.02273  0.43123  Biso   1.000  He
  He92     1.0000 0.56002  0.05323  0.42905  Biso   1.000  He
  Ne92     1.0000 0.57973  0.07560  0.44101  Biso   1.000  Ne
  Ne93     1.0000 0.59606  0.05843  0.70802  Biso   1.000  Ne
  He93     1.0000 0.59425  0.04565  0.67973  Biso   1.000  He
  He94     1.0000 0.60510  0.06570  0.65643  Biso   1.000  He
  Ne94     1.0000 0.59978  0.05538  0.62586  Biso   1.000  Ne
  Ne95     1.0000 0.40699  0.64543  0.10822  Biso   1.000  Ne
  He95     1.0000 0.42514  0.64231  0.13532  Biso   1.000  He
  He96     1.0000 0.40741  0.64896  0.16175  Biso   1.000  He
  Ne96     1.0000 0.42339  0.66495  0.18618  Biso   1.000  Ne
  Ne97     1.0000 0.73350  0.86148  0.60211  Biso   1.000  Ne
  He97     1.0000 0.71194  0.86600  0.62819  Biso   1.000  He
  He98     1.0000 0.70935  0.89715  0.64050  Biso   1.000  He
  Ne98     1.0000 0.68852  0.89669  0.66306  Biso   1.000  Ne
  Ne99     1.0000 0.99538  0.54135  0.50001  Biso   1.000  Ne
  He99     1.0000 0.99112  0.53727  0.46792  Biso   1.000  He
  He100    1.0000 0.98218  0.50531  0.45954  Biso   1.000  He
  Ne100    1.0000 0.97274  0.50422  0.42714  Biso   1.000  Ne
  Ne101    1.0000 0.91614  0.29110  0.27342  Biso   1.000  Ne
  He101    1.0000 0.89870  0.29732  0.30140  Biso   1.000  He
  He102    1.0000 0.90889  0.32484  0.31550  Biso   1.000  He
  Ne102    1.0000 0.89227  0.33490  0.34112  Biso   1.000  Ne
  Ne103    1.0000 0.91481  0.03039  0.20655  Biso   1.000  Ne
  He103    1.0000 0.89020  0.02870  0.18541  Biso   1.000  He
  He104    1.0000 0.86601  0.04767  0.19790  Biso   1.000  He
  Ne104    1.0000 0.83355  0.04449  0.18285  Biso   1.000  Ne
  Ne105    1.0000 0.44415  0.34215  0.22159  Biso   1.000  Ne
  He105    1.0000 0.42654  0.35049  0.19604  Biso   1.000  He
  He106    1.0000 0.40565  0.37592  0.20045  Biso   1.000  He
  Ne106    1.0000 0.38519  0.38476  0.17494  Biso   1.000  Ne
  Ne107    1.0000 0.89950  0.36889  0.44507  Biso   1.000  Ne
  He107    1.0000 0.87401  0.38318  0.42883  Biso   1.000  He
  He108    1.0000 0.84531  0.37389  0.43591  Biso   1.000  He
  Ne108    1.0000 0.82257  0.38731  0.41298  Biso   1.000  Ne
  Ne109    1.0000 0.04497  0.40333  0.60028  Biso   1.000  Ne
  He109    1.0000 0.06378  0.38181  0.58523  Biso   1.000  He
  He110    1.0000 0.09283  0.37371  0.60118  Biso   1.000  He
  Ne110    1.0000 0.11026  0.35157  0.58281  Biso   1.000  Ne
  Ne111    1.0000 0.04553  0.42880  0.45079  Biso   1.000  Ne
  He111    1.0000 0.06801  0.40661  0.43858  Biso   1.000  He
  He112    1.0000 0.05878  0.37257  0.43999  Biso   1.000  He
  Ne112    1.0000 0.08366  0.35491  0.42039  Biso   1.000  Ne
  Ne113    1.0000 0.17243  0.13796  0.10063  Biso   1.000  Ne
  He113    1.0000 0.20864  0.13869  0.09741  Biso   1.000  He
  He114    1.0000 0.22326  0.15823  0.11795  Biso   1.000  He
  Ne114    1.0000 0.25234  0.16458  0.10599  Biso   1.000  Ne
  Ne115    1.0000 0.56123  0.36533  0.96149  Biso   1.000  Ne
  He115    1.0000 0.58970  0.35479  0.94796  Biso   1.000  He
  He116    1.0000 0.61821  0.36916  0.96051  Biso   1.000  He
  Ne116    1.0000 0.64844  0.35847  0.94393  Biso   1.000  Ne
  Ne117    1.0000 0.15448  0.04283  0.93668  Biso   1.000  Ne
  He117    1.0000 0.12569  0.05200  0.95079  Biso   1.000  He
  He118    1.0000 0.10097  0.05332  0.92960  Biso   1.000  He
  Ne118    1.0000 0.06930  0.05903  0.94124  Biso   1.000  Ne
  Ne119    1.0000 0.88375  0.81557  0.93395  Biso   1.000  Ne
  He119    1.0000 0.89616  0.84060  0.91528  Biso   1.000  He
  He120    1.0000 0.87594  0.86400  0.90909  Biso   1.000  He
  Ne120    1.0000 0.89054  0.88554  0.89071  Biso   1.000  Ne
  Ne121    1.0000 0.44588  0.53430  0.76828  Biso   1.000  Ne
  He121    1.0000 0.41985  0.54753  0.78693  Biso   1.000  He
  He122    1.0000 0.41950  0.57986  0.79631  Biso   1.000  He
  Ne122    1.0000 0.39055  0.58742  0.81439  Biso   1.000  Ne
  Ne123    1.0000 0.45242  0.51767  0.92277  Biso   1.000  Ne
  He123    1.0000 0.44557  0.53670  0.94761  Biso   1.000  He
  He124    1.0000 0.42634  0.56413  0.94011  Biso   1.000  He
  Ne124    1.0000 0.39443  0.56327  0.94707  Biso   1.000  Ne
  Ne125    1.0000 0.35866  0.36744  0.09606  Biso   1.000  Ne
  He125    1.0000 0.36644  0.33690  0.08404  Biso   1.000  He
  He126    1.0000 0.39714  0.32993  0.08652  Biso   1.000  He
  Ne126    1.0000 0.40286  0.29844  0.08064  Biso   1.000  Ne
  Ne127    1.0000 0.42540  0.96628  0.49546  Biso   1.000  Ne
  He127    1.0000 0.44072  0.98989  0.48019  Biso   1.000  He
  He128    1.0000 0.45971  0.98377  0.45442  Biso   1.000  He
  Ne128    1.0000 0.46972  0.01051  0.43790  Biso   1.000  Ne
  Ne129    1.0000 0.10190  0.04804  0.23523  Biso   1.000  Ne
  He129    1.0000 0.08516  0.04780  0.26561  Biso   1.000  He
  He130    1.0000 0.07464  0.07668  0.27482  Biso   1.000  He
  Ne130    1.0000 0.06284  0.07750  0.30633  Biso   1.000  Ne
  Ne131    1.0000 0.40591  0.12800  0.77716  Biso   1.000  Ne
  He131    1.0000 0.37257  0.13253  0.77517  Biso   1.000  He
  He132    1.0000 0.35548  0.10988  0.75531  Biso   1.000  He
  Ne132    1.0000 0.32293  0.11284  0.75878  Biso   1.000  Ne
  Ne133    1.0000 0.57447  0.97956  0.59324  Biso   1.000  Ne
  He133    1.0000 0.58367  0.99409  0.56500  Biso   1.000  He
  He134    1.0000 0.55993  0.01747  0.55674  Biso   1.000  He
  Ne134    1.0000 0.56972  0.03677  0.53365  Biso   1.000  Ne
  Ne135    1.0000 0.92982  0.21101  0.96459  Biso   1.000  Ne
  He135    1.0000 0.93079  0.19370  0.93595  Biso   1.000  He
  He136    1.0000 0.92789  0.16153  0.94143  Biso   1.000  He
  Ne136    1.0000 0.93632  0.14268  0.91649  Biso   1.000  Ne
  Ne137    1.0000 0.92551  0.28761  0.42707  Biso   1.000  Ne
  He137    1.0000 0.91473  0.26047  0.44259  Biso   1.000  He
  He138    1.0000 0.93570  0.23436  0.44157  Biso   1.000  He
  Ne138    1.0000 0.92266  0.20866  0.45344  Biso   1.000  Ne
  Ne139    1.0000 0.46208  0.46620  0.99968  Biso   1.000  Ne
  He139    1.0000 0.46807  0.43803  0.98218  Biso   1.000  He
  He140    1.0000 0.48085  0.44383  0.95402  Biso   1.000  He
  Ne140    1.0000 0.47913  0.41761  0.93271  Biso   1.000  Ne
  Ne141    1.0000 0.42177  0.06387  0.69529  Biso   1.000  Ne
  He141    1.0000 0.41500  0.03991  0.67061  Biso   1.000  He
  He142    1.0000 0.42662  0.04206  0.63837  Biso   1.000  He
  Ne142    1.0000 0.45230  0.01995  0.63094  Biso   1.000  Ne
  Ne143    1.0000 0.09691  0.15031  0.92586  Biso   1.000  Ne
  He143    1.0000 0.12889  0.15185  0.91551  Biso   1.000  He
  He144    1.0000 0.15196  0.12993  0.93321  Biso   1.000  He
  Ne144    1.0000 0.18240  0.12966  0.92158  Biso   1.000  Ne
  Ne145    1.0000 0.67318  0.54197  0.95210  Biso   1.000  Ne
  He145    1.0000 0.67917  0.57361  0.94112  Biso   1.000  He
  He146    1.0000 0.65190  0.59356  0.94469  Biso   1.000  He
  Ne146    1.0000 0.65662  0.62372  0.93607  Biso   1.000  Ne
  Ne147    1.0000 0.93404  0.05089  0.83647  Biso   1.000  Ne
  He147    1.0000 0.93991  0.08295  0.84213  Biso   1.000  He
  He148    1.0000 0.91518  0.10401  0.83137  Biso   1.000  He
  Ne148    1.0000 0.92307  0.13718  0.83706  Biso   1.000  Ne
  Ne149    1.0000 0.60928  0.31027  0.83446  Biso   1.000  Ne
  He149    1.0000 0.59723  0.33998  0.83375  Biso   1.000  He
  He150    1.0000 0.59850  0.35512  0.86311  Biso   1.000  He
  Ne150    1.0000 0.59522  0.38829  0.86211  Biso   1.000  Ne
  Ne151    1.0000 0.42422  0.38115  0.85631  Biso   1.000  Ne
  He151    1.0000 0.43828  0.35370  0.86396  Biso   1.000  He
  He152    1.0000 0.42066  0.32606  0.85528  Biso   1.000  He
  Ne152    1.0000 0.43785  0.29809  0.85910  Biso   1.000  Ne
  Ne153    1.0000 0.92552  0.06904  0.95025  Biso   1.000  Ne
  He153    1.0000 0.94066  0.04506  0.93084  Biso   1.000  He
  He154    1.0000 0.96276  0.02641  0.94523  Biso   1.000  He
  Ne154    1.0000 0.97267  0.00153  0.92507  Biso   1.000  Ne
  Ne155    1.0000 0.92131  0.03140  0.09627  Biso   1.000  Ne
  He155    1.0000 0.94290  0.02314  0.07408  Biso   1.000  He
  He156    1.0000 0.93249  0.99877  0.05174  Biso   1.000  He
  Ne156    1.0000 0.95263  0.99680  0.02398  Biso   1.000  Ne
  Ne157    1.0000 0.81483  0.88098  0.14745  Biso   1.000  Ne
  He157    1.0000 0.82715  0.88239  0.11683  Biso   1.000  He
  He158    1.0000 0.85206  0.86297  0.10904  Biso   1.000  He
  Ne158    1.0000 0.84179  0.83394  0.09402  Biso   1.000  Ne
  Ne159    1.0000 0.92927  0.76341  0.09193  Biso   1.000  Ne
  He159    1.0000 0.93410  0.79175  0.11221  Biso   1.000  He
  He160    1.0000 0.93419  0.82059  0.09606  Biso   1.000  He
  Ne160    1.0000 0.94165  0.84411  0.11630  Biso   1.000  Ne
