data_image0
_cell_length_a       46.8898
_cell_length_b       47.2028
_cell_length_c       46.4863
_cell_angle_alpha    90
_cell_angle_beta     90
_cell_angle_gamma    90

_symmetry_space_group_name_H-M    "P 1"
_symmetry_int_tables_number       1

loop_
  _symmetry_equiv_pos_as_xyz
  'x, y, z'

loop_
  _atom_site_label
  _atom_site_occupancy
  _atom_site_fract_x
  _atom_site_fract_y
  _atom_site_fract_z
  _atom_site_thermal_displace_type
  _atom_site_B_iso_or_equiv
  _atom_site_type_symbol
  Ne1      1.0000 0.59588  0.55918  0.26312  Biso   1.000  Ne
  He1      1.0000 0.58719  0.57714  0.23500  Biso   1.000  He
  He2      1.0000 0.60809  0.57905  0.21027  Biso   1.000  He
  Ne2      1.0000 0.59976  0.60385  0.18768  Biso   1.000  Ne
  Ne3      1.0000 0.47077  0.12304  0.61650  Biso   1.000  Ne
  He3      1.0000 0.46928  0.15491  0.62975  Biso   1.000  He
  He4      1.0000 0.45339  0.17934  0.61329  Biso   1.000  He
  Ne4      1.0000 0.42367  0.18851  0.62728  Biso   1.000  Ne
  Ne5      1.0000 0.08987  0.29395  0.31943  Biso   1.000  Ne
  He5      1.0000 0.11240  0.31976  0.32240  Biso   1.000  He
  He6      1.0000 0.09461  0.34849  0.31329  Biso   1.000  He
  Ne6      1.0000 0.11006  0.37900  0.31282  Biso   1.000  Ne
  Ne7      1.0000 0.11340  0.68056  0.38015  Biso   1.000  Ne
  He7      1.0000 0.10606  0.66967  0.34887  Biso   1.000  He
  He8      1.0000 0.11513  0.69279  0.32427  Biso   1.000  He
  Ne8      1.0000 0.10485  0.68785  0.29349  Biso   1.000  Ne
  Ne9      1.0000 0.56792  0.80060  0.02511  Biso   1.000  Ne
  He9      1.0000 0.55181  0.79967  0.05383  Biso   1.000  He
  He10     1.0000 0.53859  0.82573  0.06481  Biso   1.000  He
  Ne10     1.0000 0.52624  0.82566  0.09599  Biso   1.000  Ne
  Ne11     1.0000 0.70532  0.28427  0.13673  Biso   1.000  Ne
  He11     1.0000 0.67545  0.29237  0.12220  Biso   1.000  He
  He12     1.0000 0.65150  0.27063  0.12436  Biso   1.000  He
  Ne12     1.0000 0.62445  0.28203  0.10919  Biso   1.000  Ne
  Ne13     1.0000 0.12503  0.72813  0.66836  Biso   1.000  Ne
  He13     1.0000 0.12932  0.70126  0.65052  Biso   1.000  He
  He14     1.0000 0.10019  0.68175  0.65142  Biso   1.000  He
  Ne14     1.0000 0.10152  0.65341  0.63514  Biso   1.000  Ne
  Ne15     1.0000 0.68435  0.81437  0.62387  Biso   1.000  Ne
  He15     1.0000 0.69395  0.84454  0.61453  Biso   1.000  He
  He16     1.0000 0.67657  0.86949  0.62793  Biso   1.000  He
  Ne16     1.0000 0.68374  0.89964  0.61857  Biso   1.000  Ne
  Ne17     1.0000 0.96566  0.34582  0.60011  Biso   1.000  Ne
  He17     1.0000 0.95482  0.37262  0.58423  Biso   1.000  He
  He18     1.0000 0.95197  0.40049  0.60011  Biso   1.000  He
  Ne18     1.0000 0.94137  0.42706  0.57903  Biso   1.000  Ne
  Ne19     1.0000 0.81365  0.32877  0.42912  Biso   1.000  Ne
  He19     1.0000 0.81996  0.36096  0.43445  Biso   1.000  He
  He20     1.0000 0.85192  0.36939  0.42823  Biso   1.000  He
  Ne20     1.0000 0.85935  0.40364  0.43082  Biso   1.000  Ne
  Ne21     1.0000 0.91364  0.91007  0.28708  Biso   1.000  Ne
  He21     1.0000 0.91612  0.89674  0.25622  Biso   1.000  He
  He22     1.0000 0.94548  0.90311  0.24091  Biso   1.000  He
  Ne22     1.0000 0.94759  0.88806  0.21192  Biso   1.000  Ne
  Ne23     1.0000 0.34621  0.07064  0.44100  Biso   1.000  Ne
  He23     1.0000 0.37250  0.07124  0.46202  Biso   1.000  He
  He24     1.0000 0.39614  0.09208  0.45110  Biso   1.000  He
  Ne24     1.0000 0.42566  0.08912  0.46812  Biso   1.000  Ne
  Ne25     1.0000 0.53612  0.02623  0.60863  Biso   1.000  Ne
  He25     1.0000 0.50115  0.03365  0.60598  Biso   1.000  He
  He26     1.0000 0.48162  0.01693  0.62217  Biso   1.000  He
  Ne26     1.0000 0.45073  0.02856  0.61813  Biso   1.000  Ne
  Ne27     1.0000 0.19283  0.31022  0.63683  Biso   1.000  Ne
  He27     1.0000 0.16504  0.30695  0.61795  Biso   1.000  He
  He28     1.0000 0.14936  0.27965  0.62600  Biso   1.000  He
  Ne28     1.0000 0.12224  0.27498  0.60926  Biso   1.000  Ne
  Ne29     1.0000 0.93997  0.07639  0.20119  Biso   1.000  Ne
  He29     1.0000 0.92937  0.10869  0.19589  Biso   1.000  He
  He30     1.0000 0.93881  0.12501  0.22375  Biso   1.000  He
  Ne30     1.0000 0.93174  0.15805  0.21612  Biso   1.000  Ne
  Ne31     1.0000 0.10898  0.14357  0.12453  Biso   1.000  Ne
  He31     1.0000 0.12263  0.17366  0.12499  Biso   1.000  He
  He32     1.0000 0.10999  0.19780  0.14700  Biso   1.000  He
  Ne32     1.0000 0.12355  0.22635  0.14015  Biso   1.000  Ne
  Ne33     1.0000 0.08005  0.88526  0.11585  Biso   1.000  Ne
  He33     1.0000 0.08144  0.90988  0.13707  Biso   1.000  He
  He34     1.0000 0.09646  0.90318  0.16904  Biso   1.000  He
  Ne34     1.0000 0.09729  0.93145  0.18762  Biso   1.000  Ne
  Ne35     1.0000 0.57322  0.94032  0.45570  Biso   1.000  Ne
  He35     1.0000 0.56311  0.90690  0.46242  Biso   1.000  He
  He36     1.0000 0.58636  0.88587  0.47377  Biso   1.000  He
  Ne36     1.0000 0.58035  0.85391  0.47465  Biso   1.000  Ne
  Ne37     1.0000 0.67698  0.06021  0.41599  Biso   1.000  Ne
  He37     1.0000 0.65330  0.04454  0.43699  Biso   1.000  He
  He38     1.0000 0.62159  0.05174  0.42923  Biso   1.000  He
  Ne38     1.0000 0.60156  0.04500  0.45299  Biso   1.000  Ne
  Ne39     1.0000 0.10025  0.63302  0.44552  Biso   1.000  Ne
  He39     1.0000 0.09346  0.60106  0.43909  Biso   1.000  He
  He40     1.0000 0.12000  0.58188  0.43302  Biso   1.000  He
  Ne40     1.0000 0.11280  0.55075  0.42634  Biso   1.000  Ne
  Ne41     1.0000 0.60660  0.33532  0.20375  Biso   1.000  Ne
  He41     1.0000 0.59716  0.36464  0.21203  Biso   1.000  He
  He42     1.0000 0.60330  0.37466  0.24249  Biso   1.000  He
  Ne42     1.0000 0.59240  0.40490  0.25157  Biso   1.000  Ne
  Ne43     1.0000 0.25795  0.08352  0.13436  Biso   1.000  Ne
  He43     1.0000 0.23144  0.08789  0.15295  Biso   1.000  He
  He44     1.0000 0.20405  0.08265  0.13675  Biso   1.000  He
  Ne44     1.0000 0.17594  0.08220  0.15453  Biso   1.000  Ne
  Ne45     1.0000 0.41317  0.11055  0.32753  Biso   1.000  Ne
  He45     1.0000 0.43882  0.10017  0.34699  Biso   1.000  He
  He46     1.0000 0.43035  0.07098  0.36023  Biso   1.000  He
  Ne46     1.0000 0.45329  0.05769  0.38197  Biso   1.000  Ne
  Ne47     1.0000 0.47147  0.08420  0.25974  Biso   1.000  Ne
  He47     1.0000 0.44420  0.09690  0.24372  Biso   1.000  He
  He48     1.0000 0.43890  0.08715  0.21246  Biso   1.000  He
  Ne48     1.0000 0.41419  0.10197  0.19867  Biso   1.000  Ne
  Ne49     1.0000 0.37449  0.08150  0.66436  Biso   1.000  Ne
  He49     1.0000 0.35170  0.09924  0.64607  Biso   1.000  He
  He50     1.0000 0.34724  0.12660  0.66034  Biso   1.000  He
  Ne50     1.0000 0.31925  0.14303  0.65233  Biso   1.000  Ne
  Ne51     1.0000 0.83226  0.15369  0.95449  Biso   1.000  Ne
  He51     1.0000 0.86207  0.13765  0.95894  Biso   1.000  He
  He52     1.0000 0.88404  0.15499  0.94086  Biso   1.000  He
  Ne52     1.0000 0.91429  0.14092  0.94348  Biso   1.000  Ne
  Ne53     1.0000 0.56983  0.54852  0.05428  Biso   1.000  Ne
  He53     1.0000 0.55450  0.54685  0.08295  Biso   1.000  He
  He54     1.0000 0.57529  0.53832  0.10719  Biso   1.000  He
  Ne54     1.0000 0.56303  0.54492  0.13694  Biso   1.000  Ne
  Ne55     1.0000 0.62031  0.88810  0.37661  Biso   1.000  Ne
  He55     1.0000 0.61389  0.89822  0.34589  Biso   1.000  He
  He56     1.0000 0.63648  0.88569  0.32692  Biso   1.000  He
  Ne56     1.0000 0.63063  0.89475  0.29319  Biso   1.000  Ne
  Ne57     1.0000 0.24197  0.00830  0.60597  Biso   1.000  Ne
  He57     1.0000 0.24052  0.00342  0.57445  Biso   1.000  He
  He58     1.0000 0.23431  0.97140  0.57417  Biso   1.000  He
  Ne58     1.0000 0.23330  0.95644  0.54438  Biso   1.000  Ne
  Ne59     1.0000 0.96982  0.88875  0.10401  Biso   1.000  Ne
  He59     1.0000 0.96991  0.92006  0.11812  Biso   1.000  He
  He60     1.0000 0.97449  0.94341  0.09409  Biso   1.000  He
  Ne60     1.0000 0.97494  0.97523  0.10571  Biso   1.000  Ne
  Ne61     1.0000 0.16809  0.15541  0.89743  Biso   1.000  Ne
  He61     1.0000 0.15182  0.13947  0.92052  Biso   1.000  He
  He62     1.0000 0.12141  0.15410  0.92537  Biso   1.000  He
  Ne62     1.0000 0.09396  0.14164  0.91104  Biso   1.000  Ne
  Ne63     1.0000 0.59726  0.86791  0.68506  Biso   1.000  Ne
  He63     1.0000 0.61805  0.84051  0.69515  Biso   1.000  He
  He64     1.0000 0.60221  0.81215  0.70364  Biso   1.000  He
  Ne64     1.0000 0.62198  0.78639  0.71608  Biso   1.000  Ne
  Ne65     1.0000 0.95554  0.78446  0.89519  Biso   1.000  Ne
  He65     1.0000 0.95616  0.81018  0.87100  Biso   1.000  He
  He66     1.0000 0.96389  0.83997  0.88533  Biso   1.000  He
  Ne66     1.0000 0.96643  0.86482  0.86238  Biso   1.000  Ne
  Ne67     1.0000 0.20343  0.61446  0.68803  Biso   1.000  Ne
  He67     1.0000 0.17718  0.60414  0.67059  Biso   1.000  He
  He68     1.0000 0.18833  0.59363  0.64174  Biso   1.000  He
  Ne68     1.0000 0.16861  0.57478  0.62341  Biso   1.000  Ne
  Ne69     1.0000 0.63089  0.38987  0.81463  Biso   1.000  Ne
  He69     1.0000 0.63963  0.38985  0.84702  Biso   1.000  He
  He70     1.0000 0.61417  0.40380  0.86782  Biso   1.000  He
  Ne70     1.0000 0.61762  0.40500  0.90047  Biso   1.000  Ne
  Ne71     1.0000 0.89160  0.88584  0.10254  Biso   1.000  Ne
  He71     1.0000 0.86591  0.87798  0.12437  Biso   1.000  He
  He72     1.0000 0.87088  0.89315  0.15135  Biso   1.000  He
  Ne72     1.0000 0.84973  0.88744  0.17705  Biso   1.000  Ne
  Ne73     1.0000 0.09184  0.55758  0.71284  Biso   1.000  Ne
  He73     1.0000 0.11250  0.57304  0.73135  Biso   1.000  He
  He74     1.0000 0.13618  0.55454  0.74706  Biso   1.000  He
  Ne74     1.0000 0.15216  0.57186  0.76985  Biso   1.000  Ne
  Ne75     1.0000 0.94559  0.14353  0.10343  Biso   1.000  Ne
  He75     1.0000 0.92466  0.17025  0.11315  Biso   1.000  He
  He76     1.0000 0.94355  0.19833  0.11523  Biso   1.000  He
  Ne76     1.0000 0.92627  0.22291  0.12944  Biso   1.000  Ne
  Ne77     1.0000 0.01661  0.51968  0.61809  Biso   1.000  Ne
  He77     1.0000 0.98340  0.52744  0.61803  Biso   1.000  He
  He78     1.0000 0.96393  0.50494  0.60433  Biso   1.000  He
  Ne78     1.0000 0.93400  0.51490  0.59318  Biso   1.000  Ne
  Ne79     1.0000 0.45254  0.34804  0.10887  Biso   1.000  Ne
  He79     1.0000 0.43154  0.37380  0.11018  Biso   1.000  He
  He80     1.0000 0.43306  0.39093  0.13718  Biso   1.000  He
  Ne80     1.0000 0.42273  0.42213  0.13466  Biso   1.000  Ne
  Ne81     1.0000 0.86259  0.34668  0.59404  Biso   1.000  Ne
  He81     1.0000 0.83658  0.33146  0.59406  Biso   1.000  He
  He82     1.0000 0.82095  0.33617  0.62517  Biso   1.000  He
  Ne82     1.0000 0.79152  0.31907  0.62814  Biso   1.000  Ne
  Ne83     1.0000 0.10148  0.76663  0.98610  Biso   1.000  Ne
  He83     1.0000 0.12904  0.78144  0.99231  Biso   1.000  He
  He84     1.0000 0.15239  0.77489  0.97070  Biso   1.000  He
  Ne84     1.0000 0.17948  0.79472  0.97988  Biso   1.000  Ne
  Ne85     1.0000 0.98175  0.47736  0.52572  Biso   1.000  Ne
  He85     1.0000 0.97507  0.45671  0.50287  Biso   1.000  He
  He86     1.0000 0.94667  0.46395  0.48284  Biso   1.000  He
  Ne86     1.0000 0.94084  0.43927  0.46159  Biso   1.000  Ne
  Ne87     1.0000 0.69810  0.13603  0.42487  Biso   1.000  Ne
  He87     1.0000 0.72197  0.15431  0.43272  Biso   1.000  He
  He88     1.0000 0.73622  0.17031  0.40614  Biso   1.000  He
  Ne88     1.0000 0.76014  0.19313  0.41639  Biso   1.000  Ne
  Ne89     1.0000 0.06883  0.58846  0.61035  Biso   1.000  Ne
  He89     1.0000 0.08893  0.56295  0.61132  Biso   1.000  He
  He90     1.0000 0.08316  0.54392  0.58346  Biso   1.000  He
  Ne90     1.0000 0.09644  0.51342  0.58355  Biso   1.000  Ne
  Ne91     1.0000 0.93819  0.54483  0.52180  Biso   1.000  Ne
  He91     1.0000 0.93720  0.56053  0.49240  Biso   1.000  He
  He92     1.0000 0.92974  0.54387  0.46544  Biso   1.000  He
  Ne92     1.0000 0.93174  0.56355  0.43739  Biso   1.000  Ne
  Ne93     1.0000 0.17396  0.83480  0.82500  Biso   1.000  Ne
  He93     1.0000 0.16215  0.82017  0.85069  Biso   1.000  He
  He94     1.0000 0.14271  0.83931  0.86691  Biso   1.000  He
  Ne94     1.0000 0.12717  0.82835  0.89328  Biso   1.000  Ne
  Ne95     1.0000 0.93800  0.26183  0.64813  Biso   1.000  Ne
  He95     1.0000 0.94434  0.26578  0.67608  Biso   1.000  He
  He96     1.0000 0.93474  0.29299  0.68828  Biso   1.000  He
  Ne96     1.0000 0.94088  0.29626  0.71953  Biso   1.000  Ne
  Ne97     1.0000 0.72206  0.90055  0.23591  Biso   1.000  Ne
  He97     1.0000 0.69812  0.92108  0.23871  Biso   1.000  He
  He98     1.0000 0.69905  0.95097  0.22438  Biso   1.000  He
  Ne98     1.0000 0.67485  0.96849  0.23666  Biso   1.000  Ne
  Ne99     1.0000 0.95786  0.59172  0.32551  Biso   1.000  Ne
  He99     1.0000 0.93271  0.59931  0.34496  Biso   1.000  He
  He100    1.0000 0.90547  0.60774  0.32727  Biso   1.000  He
  Ne100    1.0000 0.88105  0.61318  0.34506  Biso   1.000  Ne
  Ne101    1.0000 0.92403  0.06396  0.11637  Biso   1.000  Ne
  He101    1.0000 0.89198  0.05967  0.11445  Biso   1.000  He
  He102    1.0000 0.87339  0.08253  0.13131  Biso   1.000  He
  Ne102    1.0000 0.84083  0.07515  0.13186  Biso   1.000  Ne
  Ne103    1.0000 0.92028  0.66922  0.45997  Biso   1.000  Ne
  He103    1.0000 0.90249  0.64254  0.46930  Biso   1.000  He
  He104    1.0000 0.87473  0.64294  0.45264  Biso   1.000  He
  Ne104    1.0000 0.85633  0.61683  0.45164  Biso   1.000  Ne
  Ne105    1.0000 0.00263  0.70575  0.03488  Biso   1.000  Ne
  He105    1.0000 0.97905  0.68361  0.04499  Biso   1.000  He
  He106    1.0000 0.95738  0.67261  0.01913  Biso   1.000  He
  Ne106    1.0000 0.93301  0.65454  0.03069  Biso   1.000  Ne
  Ne107    1.0000 0.62241  0.13738  0.42949  Biso   1.000  Ne
  He107    1.0000 0.61605  0.16865  0.41566  Biso   1.000  He
  He108    1.0000 0.61216  0.19479  0.43705  Biso   1.000  He
  Ne108    1.0000 0.63881  0.21380  0.44142  Biso   1.000  Ne
  Ne109    1.0000 0.09460  0.38103  0.60002  Biso   1.000  Ne
  He109    1.0000 0.11314  0.40398  0.61420  Biso   1.000  He
  He110    1.0000 0.14446  0.39621  0.61773  Biso   1.000  He
  Ne110    1.0000 0.16004  0.42162  0.63233  Biso   1.000  Ne
  Ne111    1.0000 0.51521  0.45224  0.11580  Biso   1.000  Ne
  He111    1.0000 0.54053  0.45541  0.09459  Biso   1.000  He
  He112    1.0000 0.55485  0.42711  0.08652  Biso   1.000  He
  Ne112    1.0000 0.58244  0.43367  0.06718  Biso   1.000  Ne
  Ne113    1.0000 0.65804  0.55900  0.13569  Biso   1.000  Ne
  He113    1.0000 0.66254  0.59013  0.14150  Biso   1.000  He
  He114    1.0000 0.65865  0.61062  0.11261  Biso   1.000  He
  Ne114    1.0000 0.66360  0.64206  0.11777  Biso   1.000  Ne
  Ne115    1.0000 0.64744  0.77797  0.43781  Biso   1.000  Ne
  He115    1.0000 0.62324  0.76766  0.45685  Biso   1.000  He
  He116    1.0000 0.61728  0.73407  0.45595  Biso   1.000  He
  Ne116    1.0000 0.59342  0.72564  0.47726  Biso   1.000  Ne
  Ne117    1.0000 0.24717  0.16882  0.96612  Biso   1.000  Ne
  He117    1.0000 0.24534  0.17336  0.93339  Biso   1.000  He
  He118    1.0000 0.24920  0.20319  0.92210  Biso   1.000  He
  Ne118    1.0000 0.24021  0.20476  0.88828  Biso   1.000  Ne
  Ne119    1.0000 0.14153  0.06889  0.97168  Biso   1.000  Ne
  He119    1.0000 0.11295  0.05307  0.96987  Biso   1.000  He
  He120    1.0000 0.09356  0.06237  0.94477  Biso   1.000  He
  Ne120    1.0000 0.06447  0.04740  0.94594  Biso   1.000  Ne
  Ne121    1.0000 0.26467  0.74678  0.66439  Biso   1.000  Ne
  He121    1.0000 0.24236  0.76655  0.65088  Biso   1.000  He
  He122    1.0000 0.21317  0.76204  0.66422  Biso   1.000  He
  Ne122    1.0000 0.18984  0.78493  0.65281  Biso   1.000  Ne
  Ne123    1.0000 0.93511  0.73372  0.34997  Biso   1.000  Ne
  He123    1.0000 0.93296  0.76007  0.33088  Biso   1.000  He
  He124    1.0000 0.95244  0.78566  0.34150  Biso   1.000  He
  Ne124    1.0000 0.95001  0.81212  0.32288  Biso   1.000  Ne
  Ne125    1.0000 0.04331  0.42435  0.51597  Biso   1.000  Ne
  He125    1.0000 0.07379  0.41601  0.50516  Biso   1.000  He
  He126    1.0000 0.07528  0.40941  0.47235  Biso   1.000  He
  Ne126    1.0000 0.10558  0.40195  0.46685  Biso   1.000  Ne
  Ne127    1.0000 0.83710  0.89748  0.94563  Biso   1.000  Ne
  He127    1.0000 0.87088  0.89445  0.95078  Biso   1.000  He
  He128    1.0000 0.88872  0.90089  0.92530  Biso   1.000  He
  Ne128    1.0000 0.92272  0.89372  0.93008  Biso   1.000  Ne
  Ne129    1.0000 0.08307  0.07521  0.80150  Biso   1.000  Ne
  He129    1.0000 0.09381  0.05955  0.82698  Biso   1.000  He
  He130    1.0000 0.12361  0.07076  0.83337  Biso   1.000  He
  Ne130    1.0000 0.13873  0.05672  0.86052  Biso   1.000  Ne
  Ne131    1.0000 0.61886  0.24147  0.86581  Biso   1.000  Ne
  He131    1.0000 0.60051  0.26773  0.87618  Biso   1.000  He
  He132    1.0000 0.60974  0.29558  0.86386  Biso   1.000  He
  Ne132    1.0000 0.58947  0.32198  0.87481  Biso   1.000  Ne
  Ne133    1.0000 0.35119  0.40607  0.18012  Biso   1.000  Ne
  He133    1.0000 0.34248  0.40866  0.15001  Biso   1.000  He
  He134    1.0000 0.31311  0.42548  0.14634  Biso   1.000  He
  Ne134    1.0000 0.30135  0.43003  0.11621  Biso   1.000  Ne
  Ne135    1.0000 0.63184  0.08887  0.58396  Biso   1.000  Ne
  He135    1.0000 0.60332  0.07287  0.57345  Biso   1.000  He
  He136    1.0000 0.61013  0.04813  0.55325  Biso   1.000  He
  Ne136    1.0000 0.58207  0.03024  0.54633  Biso   1.000  Ne
  Ne137    1.0000 0.04781  0.50467  0.46440  Biso   1.000  Ne
  He137    1.0000 0.03500  0.52692  0.48528  Biso   1.000  He
  He138    1.0000 0.05438  0.55103  0.49308  Biso   1.000  He
  Ne138    1.0000 0.03924  0.58088  0.50169  Biso   1.000  Ne
  Ne139    1.0000 0.46804  0.53298  0.13219  Biso   1.000  Ne
  He139    1.0000 0.46294  0.50703  0.11383  Biso   1.000  He
  He140    1.0000 0.45874  0.51582  0.08141  Biso   1.000  He
  Ne140    1.0000 0.45903  0.48908  0.06065  Biso   1.000  Ne
  Ne141    1.0000 0.52911  0.42784  0.31057  Biso   1.000  Ne
  He141    1.0000 0.54023  0.41940  0.34259  Biso   1.000  He
  He142    1.0000 0.57204  0.42730  0.34618  Biso   1.000  He
  Ne142    1.0000 0.58585  0.41359  0.37337  Biso   1.000  Ne
  Ne143    1.0000 0.88330  0.81338  0.20162  Biso   1.000  Ne
  He143    1.0000 0.88742  0.80502  0.16792  Biso   1.000  He
  He144    1.0000 0.91902  0.81137  0.15678  Biso   1.000  He
  Ne144    1.0000 0.92388  0.80757  0.12391  Biso   1.000  Ne
  Ne145    1.0000 0.19289  0.99493  0.72838  Biso   1.000  Ne
  He145    1.0000 0.20483  0.01774  0.74906  Biso   1.000  He
  He146    1.0000 0.18558  0.03039  0.77494  Biso   1.000  He
  Ne146    1.0000 0.20094  0.05170  0.79416  Biso   1.000  Ne
  Ne147    1.0000 0.22716  0.90476  0.94790  Biso   1.000  Ne
  He147    1.0000 0.20082  0.90254  0.93131  Biso   1.000  He
  He148    1.0000 0.20303  0.90259  0.90106  Biso   1.000  He
  Ne148    1.0000 0.17232  0.90557  0.88833  Biso   1.000  Ne
  Ne149    1.0000 0.13961  0.69395  0.82408  Biso   1.000  Ne
  He149    1.0000 0.11806  0.70827  0.80285  Biso   1.000  He
  He150    1.0000 0.12411  0.74176  0.79579  Biso   1.000  He
  Ne150    1.0000 0.10229  0.75627  0.77407  Biso   1.000  Ne
  Ne151    1.0000 0.38376  0.34889  0.29375  Biso   1.000  Ne
  He151    1.0000 0.39857  0.37738  0.28539  Biso   1.000  He
  He152    1.0000 0.41055  0.37832  0.25521  Biso   1.000  He
  Ne152    1.0000 0.43191  0.40218  0.24610  Biso   1.000  Ne
  Ne153    1.0000 0.90660  0.05569  0.90741  Biso   1.000  Ne
  He153    1.0000 0.92662  0.07020  0.88772  Biso   1.000  He
  He154    1.0000 0.91171  0.07906  0.85834  Biso   1.000  He
  Ne154    1.0000 0.93434  0.09196  0.83487  Biso   1.000  Ne
  Ne155    1.0000 0.19806  0.61867  0.40270  Biso   1.000  Ne
  He155    1.0000 0.19697  0.60846  0.37194  Biso   1.000  He
  He156    1.0000 0.19722  0.57569  0.37143  Biso   1.000  He
  Ne156    1.0000 0.19217  0.56576  0.34061  Biso   1.000  Ne
  Ne157    1.0000 0.41587  0.91468  0.42494  Biso   1.000  Ne
  He157    1.0000 0.39453  0.89999  0.40686  Biso   1.000  He
  He158    1.0000 0.39464  0.90995  0.37421  Biso   1.000  He
  Ne158    1.0000 0.37023  0.89556  0.35480  Biso   1.000  Ne
  Ne159    1.0000 0.93372  0.96164  0.00827  Biso   1.000  Ne
  He159    1.0000 0.95113  0.98444  0.02385  Biso   1.000  He
  He160    1.0000 0.95963  0.01048  0.00678  Biso   1.000  He
  Ne160    1.0000 0.97930  0.03071  0.02001  Biso   1.000  Ne
  Ne161    1.0000 0.34324  0.26091  0.47362  Biso   1.000  Ne
  He161    1.0000 0.35530  0.23225  0.46379  Biso   1.000  He
  He162    1.0000 0.33275  0.20995  0.45515  Biso   1.000  He
  Ne162    1.0000 0.34734  0.17833  0.45164  Biso   1.000  Ne
  Ne163    1.0000 0.29714  0.57354  0.96328  Biso   1.000  Ne
  He163    1.0000 0.31521  0.56269  0.93926  Biso   1.000  He
  He164    1.0000 0.32017  0.58076  0.91036  Biso   1.000  He
  Ne164    1.0000 0.34646  0.56999  0.89048  Biso   1.000  Ne
  Ne165    1.0000 0.41835  0.82276  0.38953  Biso   1.000  Ne
  He165    1.0000 0.43680  0.83554  0.36577  Biso   1.000  He
  He166    1.0000 0.43771  0.81907  0.33869  Biso   1.000  He
  Ne166    1.0000 0.45130  0.83775  0.31480  Biso   1.000  Ne
  Ne167    1.0000 0.41177  0.64949  0.13067  Biso   1.000  Ne
  He167    1.0000 0.43118  0.65725  0.15514  Biso   1.000  He
  He168    1.0000 0.41357  0.65782  0.18054  Biso   1.000  He
  Ne168    1.0000 0.42923  0.66538  0.20681  Biso   1.000  Ne
  Ne169    1.0000 0.21165  0.89596  0.62244  Biso   1.000  Ne
  He169    1.0000 0.24664  0.89440  0.62425  Biso   1.000  He
  He170    1.0000 0.25609  0.91325  0.64977  Biso   1.000  He
  Ne170    1.0000 0.28846  0.92460  0.64927  Biso   1.000  Ne
  Ne171    1.0000 0.15272  0.15770  0.71179  Biso   1.000  Ne
  He171    1.0000 0.12720  0.17451  0.72873  Biso   1.000  He
  He172    1.0000 0.11569  0.19752  0.70687  Biso   1.000  He
  Ne172    1.0000 0.09825  0.22128  0.72110  Biso   1.000  Ne
  Ne173    1.0000 0.04205  0.93564  0.03076  Biso   1.000  Ne
  He173    1.0000 0.01076  0.92696  0.02223  Biso   1.000  He
  He174    1.0000 0.01054  0.89914  0.00303  Biso   1.000  He
  Ne174    1.0000 0.98037  0.89307  0.99179  Biso   1.000  Ne
  Ne175    1.0000 0.66793  0.40644  0.19287  Biso   1.000  Ne
  He175    1.0000 0.67392  0.38992  0.16406  Biso   1.000  He
  He176    1.0000 0.66414  0.40275  0.13660  Biso   1.000  He
  Ne176    1.0000 0.67702  0.38768  0.10852  Biso   1.000  Ne
  Ne177    1.0000 0.21046  0.39303  0.44503  Biso   1.000  Ne
  He177    1.0000 0.18859  0.40930  0.42528  Biso   1.000  He
  He178    1.0000 0.16977  0.38567  0.40830  Biso   1.000  He
  Ne178    1.0000 0.14180  0.39870  0.39046  Biso   1.000  Ne
  Ne179    1.0000 0.71843  0.02150  0.01077  Biso   1.000  Ne
  He179    1.0000 0.74937  0.03241  0.00586  Biso   1.000  He
  He180    1.0000 0.75282  0.06309  0.99450  Biso   1.000  He
  Ne180    1.0000 0.78252  0.07206  0.98794  Biso   1.000  Ne
  Ne181    1.0000 0.09601  0.38595  0.70732  Biso   1.000  Ne
  He181    1.0000 0.09698  0.35424  0.69389  Biso   1.000  He
  He182    1.0000 0.10710  0.32945  0.71526  Biso   1.000  He
  Ne182    1.0000 0.10788  0.29881  0.70112  Biso   1.000  Ne
  Ne183    1.0000 0.73111  0.77576  0.10390  Biso   1.000  Ne
  He183    1.0000 0.73734  0.80770  0.11048  Biso   1.000  He
  He184    1.0000 0.75968  0.82024  0.09030  Biso   1.000  He
  Ne184    1.0000 0.76778  0.85146  0.09668  Biso   1.000  Ne
  Ne185    1.0000 0.86729  0.80074  0.93665  Biso   1.000  Ne
  He185    1.0000 0.88030  0.77007  0.93625  Biso   1.000  He
  He186    1.0000 0.87909  0.75294  0.96620  Biso   1.000  He
  Ne186    1.0000 0.88788  0.71994  0.96142  Biso   1.000  Ne
  Ne187    1.0000 0.60477  0.55556  0.90958  Biso   1.000  Ne
  He187    1.0000 0.62745  0.56801  0.92509  Biso   1.000  He
  He188    1.0000 0.65840  0.55087  0.91907  Biso   1.000  He
  Ne188    1.0000 0.68238  0.56125  0.93842  Biso   1.000  Ne
  Ne189    1.0000 0.36895  0.84069  0.63504  Biso   1.000  Ne
  He189    1.0000 0.39842  0.82715  0.64795  Biso   1.000  He
  He190    1.0000 0.39800  0.79418  0.65657  Biso   1.000  He
  Ne190    1.0000 0.42437  0.78116  0.67043  Biso   1.000  Ne
  Ne191    1.0000 0.89754  0.35774  0.66421  Biso   1.000  Ne
  He191    1.0000 0.90971  0.38013  0.68106  Biso   1.000  He
  He192    1.0000 0.92174  0.36691  0.70919  Biso   1.000  He
  Ne192    1.0000 0.93368  0.39186  0.72906  Biso   1.000  Ne
  Ne193    1.0000 0.92020  0.26800  0.44199  Biso   1.000  Ne
  He193    1.0000 0.94210  0.28683  0.42539  Biso   1.000  He
  He194    1.0000 0.92935  0.31632  0.41536  Biso   1.000  He
  Ne194    1.0000 0.95167  0.33115  0.39642  Biso   1.000  Ne
  Ne195    1.0000 0.31904  0.90149  0.45643  Biso   1.000  Ne
  He195    1.0000 0.31068  0.87088  0.44701  Biso   1.000  He
  He196    1.0000 0.33618  0.85281  0.43367  Biso   1.000  He
  Ne196    1.0000 0.32857  0.82029  0.43067  Biso   1.000  Ne
  Ne197    1.0000 0.36563  0.66328  0.95165  Biso   1.000  Ne
  He197    1.0000 0.39502  0.64881  0.94669  Biso   1.000  He
  He198    1.0000 0.41912  0.66784  0.93284  Biso   1.000  He
  Ne198    1.0000 0.44290  0.67592  0.95575  Biso   1.000  Ne
  Ne199    1.0000 0.41640  0.73825  0.76175  Biso   1.000  Ne
  He199    1.0000 0.42072  0.75131  0.79043  Biso   1.000  He
  He200    1.0000 0.41588  0.78256  0.79218  Biso   1.000  He
  Ne200    1.0000 0.41758  0.79429  0.82618  Biso   1.000  Ne
  Ne201    1.0000 0.50960  0.06023  0.47599  Biso   1.000  Ne
  He201    1.0000 0.49107  0.04541  0.49913  Biso   1.000  He
  He202    1.0000 0.47656  0.06666  0.52107  Biso   1.000  He
  Ne202    1.0000 0.45493  0.05073  0.54195  Biso   1.000  Ne
  Ne203    1.0000 0.89498  0.58259  0.61899  Biso   1.000  Ne
  He203    1.0000 0.91677  0.58552  0.64554  Biso   1.000  He
  He204    1.0000 0.91905  0.56322  0.66963  Biso   1.000  He
  Ne204    1.0000 0.93898  0.57597  0.69229  Biso   1.000  Ne
  Ne205    1.0000 0.09773  0.08597  0.28108  Biso   1.000  Ne
  He205    1.0000 0.08548  0.08918  0.25008  Biso   1.000  He
  He206    1.0000 0.10855  0.09771  0.22723  Biso   1.000  He
  Ne206    1.0000 0.09627  0.10431  0.20039  Biso   1.000  Ne
  Ne207    1.0000 0.93757  0.41912  0.37593  Biso   1.000  Ne
  He207    1.0000 0.93689  0.40756  0.34460  Biso   1.000  He
  He208    1.0000 0.90430  0.40628  0.33610  Biso   1.000  He
  Ne208    1.0000 0.89650  0.40164  0.30472  Biso   1.000  Ne
  Ne209    1.0000 0.54328  0.91781  0.55903  Biso   1.000  Ne
  He209    1.0000 0.56282  0.92861  0.58602  Biso   1.000  He
  He210    1.0000 0.59471  0.91468  0.58944  Biso   1.000  He
  Ne210    1.0000 0.61349  0.93364  0.61222  Biso   1.000  Ne
  Ne211    1.0000 0.44996  0.32291  0.18287  Biso   1.000  Ne
  He211    1.0000 0.43813  0.29820  0.16694  Biso   1.000  He
  He212    1.0000 0.44478  0.26955  0.18029  Biso   1.000  He
  Ne212    1.0000 0.43238  0.24460  0.16269  Biso   1.000  Ne
  Ne213    1.0000 0.18346  0.91364  0.21794  Biso   1.000  Ne
  He213    1.0000 0.20550  0.90291  0.19655  Biso   1.000  He
  He214    1.0000 0.20067  0.91470  0.16422  Biso   1.000  He
  Ne214    1.0000 0.22249  0.90808  0.14110  Biso   1.000  Ne
  Ne215    1.0000 0.44815  0.55392  0.86641  Biso   1.000  Ne
  He215    1.0000 0.42126  0.56563  0.84947  Biso   1.000  He
  He216    1.0000 0.41561  0.55152  0.81901  Biso   1.000  He
  Ne216    1.0000 0.38693  0.55319  0.80542  Biso   1.000  Ne
  Ne217    1.0000 0.51753  0.43161  0.99362  Biso   1.000  Ne
  He217    1.0000 0.48982  0.41479  0.99736  Biso   1.000  He
  He218    1.0000 0.46218  0.42951  0.98090  Biso   1.000  He
  Ne218    1.0000 0.43523  0.41159  0.98167  Biso   1.000  Ne
  Ne219    1.0000 0.45633  0.39647  0.77325  Biso   1.000  Ne
  He219    1.0000 0.43720  0.37054  0.78122  Biso   1.000  He
  He220    1.0000 0.45197  0.34163  0.78113  Biso   1.000  He
  Ne220    1.0000 0.43248  0.31413  0.79056  Biso   1.000  Ne
  Ne221    1.0000 0.43002  0.17191  0.37650  Biso   1.000  Ne
  He221    1.0000 0.44496  0.18669  0.40329  Biso   1.000  He
  He222    1.0000 0.43755  0.17572  0.43469  Biso   1.000  He
  Ne222    1.0000 0.45415  0.19117  0.46184  Biso   1.000  Ne
  Ne223    1.0000 0.25793  0.27532  0.16558  Biso   1.000  Ne
  He223    1.0000 0.27993  0.28434  0.14162  Biso   1.000  He
  He224    1.0000 0.29007  0.31600  0.14520  Biso   1.000  He
  Ne224    1.0000 0.30660  0.32681  0.11995  Biso   1.000  Ne
  Ne225    1.0000 0.45090  0.19075  0.22503  Biso   1.000  Ne
  He225    1.0000 0.48440  0.18592  0.22441  Biso   1.000  He
  He226    1.0000 0.49864  0.19211  0.19545  Biso   1.000  He
  Ne226    1.0000 0.53098  0.18198  0.19464  Biso   1.000  Ne
  Ne227    1.0000 0.64225  0.09846  0.26762  Biso   1.000  Ne
  He227    1.0000 0.62531  0.09278  0.29645  Biso   1.000  He
  He228    1.0000 0.64670  0.07831  0.31939  Biso   1.000  He
  Ne228    1.0000 0.63368  0.06500  0.34809  Biso   1.000  Ne
  Ne229    1.0000 0.30532  0.21687  0.61880  Biso   1.000  Ne
  He229    1.0000 0.27431  0.21210  0.60771  Biso   1.000  He
  He230    1.0000 0.25932  0.23977  0.60171  Biso   1.000  He
  Ne230    1.0000 0.22697  0.23872  0.59940  Biso   1.000  Ne
  Ne231    1.0000 0.38828  0.56564  0.17139  Biso   1.000  Ne
  He231    1.0000 0.39713  0.57915  0.20211  Biso   1.000  He
  He232    1.0000 0.40699  0.55749  0.22510  Biso   1.000  He
  Ne232    1.0000 0.41715  0.56867  0.25538  Biso   1.000  Ne
  Ne233    1.0000 0.93840  0.13396  0.72259  Biso   1.000  Ne
  He233    1.0000 0.96692  0.11761  0.73246  Biso   1.000  He
  He234    1.0000 0.99310  0.12644  0.71680  Biso   1.000  He
  Ne234    1.0000 0.01693  0.10708  0.72441  Biso   1.000  Ne
  Ne235    1.0000 0.22233  0.93697  0.44696  Biso   1.000  Ne
  He235    1.0000 0.24518  0.94788  0.42282  Biso   1.000  He
  He236    1.0000 0.24108  0.93249  0.39422  Biso   1.000  He
  Ne236    1.0000 0.25769  0.94469  0.36946  Biso   1.000  Ne
  Ne237    1.0000 0.66995  0.60540  0.29540  Biso   1.000  Ne
  He237    1.0000 0.67236  0.57900  0.31532  Biso   1.000  He
  He238    1.0000 0.68176  0.54977  0.30043  Biso   1.000  He
  Ne238    1.0000 0.71593  0.54383  0.30062  Biso   1.000  Ne
  Ne239    1.0000 0.35760  0.37752  0.82912  Biso   1.000  Ne
  He239    1.0000 0.36677  0.39524  0.85279  Biso   1.000  He
  He240    1.0000 0.39102  0.38061  0.87009  Biso   1.000  He
  Ne240    1.0000 0.40102  0.39325  0.89990  Biso   1.000  Ne
  Ne241    1.0000 0.44286  0.06259  0.76793  Biso   1.000  Ne
  He241    1.0000 0.45711  0.07628  0.74116  Biso   1.000  He
  He242    1.0000 0.44182  0.10225  0.73051  Biso   1.000  He
  Ne242    1.0000 0.45830  0.11918  0.70406  Biso   1.000  Ne
  Ne243    1.0000 0.54876  0.50498  0.95254  Biso   1.000  Ne
  He243    1.0000 0.57685  0.48834  0.96678  Biso   1.000  He
  He244    1.0000 0.57929  0.45527  0.95681  Biso   1.000  He
  Ne244    1.0000 0.60527  0.44224  0.97241  Biso   1.000  Ne
  Ne245    1.0000 0.43761  0.58119  0.98954  Biso   1.000  Ne
  He245    1.0000 0.43193  0.55187  0.97609  Biso   1.000  He
  He246    1.0000 0.45271  0.54081  0.95378  Biso   1.000  He
  Ne246    1.0000 0.44605  0.51229  0.94055  Biso   1.000  Ne
  Ne247    1.0000 0.12267  0.93904  0.98368  Biso   1.000  Ne
  He247    1.0000 0.11719  0.91304  0.97076  Biso   1.000  He
  He248    1.0000 0.11090  0.88539  0.98756  Biso   1.000  He
  Ne248    1.0000 0.09864  0.86158  0.96884  Biso   1.000  Ne
  Ne249    1.0000 0.62985  0.29192  0.40981  Biso   1.000  Ne
  He249    1.0000 0.61676  0.26807  0.39302  Biso   1.000  He
  He250    1.0000 0.59269  0.28093  0.37011  Biso   1.000  He
  Ne250    1.0000 0.57755  0.25767  0.35429  Biso   1.000  Ne
  Ne251    1.0000 0.68580  0.08978  0.65871  Biso   1.000  Ne
  He251    1.0000 0.65280  0.08953  0.66050  Biso   1.000  He
  He252    1.0000 0.64051  0.05746  0.66803  Biso   1.000  He
  Ne252    1.0000 0.60721  0.05805  0.67189  Biso   1.000  Ne
  Ne253    1.0000 0.09301  0.99067  0.07861  Biso   1.000  Ne
  He253    1.0000 0.08828  0.02258  0.08637  Biso   1.000  He
  He254    1.0000 0.10426  0.04553  0.06759  Biso   1.000  He
  Ne254    1.0000 0.10617  0.07720  0.08005  Biso   1.000  Ne
  Ne255    1.0000 0.18579  0.27615  0.43928  Biso   1.000  Ne
  He255    1.0000 0.16305  0.29847  0.42738  Biso   1.000  He
  He256    1.0000 0.13395  0.29295  0.43963  Biso   1.000  He
  Ne256    1.0000 0.10987  0.31200  0.43030  Biso   1.000  Ne
  Ne257    1.0000 0.74005  0.20770  0.13094  Biso   1.000  Ne
  He257    1.0000 0.71265  0.21278  0.11043  Biso   1.000  He
  He258    1.0000 0.70851  0.19279  0.08210  Biso   1.000  He
  Ne258    1.0000 0.68106  0.20371  0.06623  Biso   1.000  Ne
  Ne259    1.0000 0.79250  0.23182  0.95871  Biso   1.000  Ne
  He259    1.0000 0.81412  0.25627  0.96356  Biso   1.000  He
  He260    1.0000 0.84158  0.24559  0.97921  Biso   1.000  He
  Ne260    1.0000 0.86194  0.26844  0.98904  Biso   1.000  Ne
