data_image0
_cell_length_a       46.5488
_cell_length_b       46.6202
_cell_length_c       46.6283
_cell_angle_alpha    90
_cell_angle_beta     90
_cell_angle_gamma    90

_symmetry_space_group_name_H-M    "P 1"
_symmetry_int_tables_number       1

loop_
  _symmetry_equiv_pos_as_xyz
  'x, y, z'

loop_
  _atom_site_label
  _atom_site_occupancy
  _atom_site_fract_x
  _atom_site_fract_y
  _atom_site_fract_z
  _atom_site_thermal_displace_type
  _atom_site_B_iso_or_equiv
  _atom_site_type_symbol
  Ne1      1.0000 0.94952  0.38094  0.62238  Biso   1.000  Ne
  He1      1.0000 0.95953  0.40897  0.60865  Biso   1.000  He
  He2      1.0000 0.94079  0.41852  0.58255  Biso   1.000  He
  Ne2      1.0000 0.95494  0.44592  0.56414  Biso   1.000  Ne
  Ne3      1.0000 0.75836  0.57388  0.40547  Biso   1.000  Ne
  He3      1.0000 0.78566  0.58561  0.42309  Biso   1.000  He
  He4      1.0000 0.81341  0.57206  0.41076  Biso   1.000  He
  Ne4      1.0000 0.83752  0.57405  0.43290  Biso   1.000  Ne
  Ne5      1.0000 0.17902  0.88126  0.81165  Biso   1.000  Ne
  He5      1.0000 0.16739  0.90506  0.83277  Biso   1.000  He
  He6      1.0000 0.14060  0.89270  0.85089  Biso   1.000  He
  Ne6      1.0000 0.12245  0.91496  0.87152  Biso   1.000  Ne
  Ne7      1.0000 0.67100  0.62013  0.91895  Biso   1.000  Ne
  He7      1.0000 0.70112  0.61271  0.93258  Biso   1.000  He
  He8      1.0000 0.71070  0.58144  0.92312  Biso   1.000  He
  Ne8      1.0000 0.74043  0.57521  0.92974  Biso   1.000  Ne
  Ne9      1.0000 0.41888  0.93868  0.62492  Biso   1.000  Ne
  He9      1.0000 0.41596  0.94707  0.59248  Biso   1.000  He
  He10     1.0000 0.43666  0.93114  0.57273  Biso   1.000  He
  Ne10     1.0000 0.44090  0.94641  0.54253  Biso   1.000  Ne
  Ne11     1.0000 0.61082  0.55284  0.89732  Biso   1.000  Ne
  He11     1.0000 0.60011  0.55957  0.86593  Biso   1.000  He
  He12     1.0000 0.62421  0.55182  0.84522  Biso   1.000  He
  Ne12     1.0000 0.61484  0.55081  0.81276  Biso   1.000  Ne
  Ne13     1.0000 0.10447  0.88888  0.75770  Biso   1.000  Ne
  He13     1.0000 0.11114  0.85735  0.76189  Biso   1.000  He
  He14     1.0000 0.10009  0.84694  0.79349  Biso   1.000  He
  Ne14     1.0000 0.11489  0.81830  0.80295  Biso   1.000  Ne
  Ne15     1.0000 0.42090  0.10890  0.67705  Biso   1.000  Ne
  He15     1.0000 0.41588  0.10378  0.71038  Biso   1.000  He
  He16     1.0000 0.40253  0.07487  0.71694  Biso   1.000  He
  Ne16     1.0000 0.39805  0.07106  0.74849  Biso   1.000  Ne
  Ne17     1.0000 0.07351  0.91538  0.99939  Biso   1.000  Ne
  He17     1.0000 0.07169  0.93402  0.97184  Biso   1.000  He
  He18     1.0000 0.04229  0.94008  0.96052  Biso   1.000  He
  Ne18     1.0000 0.03776  0.95768  0.93326  Biso   1.000  Ne
  Ne19     1.0000 0.93361  0.64708  0.68758  Biso   1.000  Ne
  He19     1.0000 0.91294  0.62308  0.68086  Biso   1.000  He
  He20     1.0000 0.91365  0.59745  0.70372  Biso   1.000  He
  Ne20     1.0000 0.89294  0.57457  0.69057  Biso   1.000  Ne
  Ne21     1.0000 0.43874  0.87403  0.42554  Biso   1.000  Ne
  He21     1.0000 0.42784  0.89384  0.40284  Biso   1.000  He
  He22     1.0000 0.43888  0.88557  0.37408  Biso   1.000  He
  Ne22     1.0000 0.42839  0.90787  0.35039  Biso   1.000  Ne
  Ne23     1.0000 0.68270  0.39923  0.19741  Biso   1.000  Ne
  He23     1.0000 0.68978  0.38404  0.17006  Biso   1.000  He
  He24     1.0000 0.67774  0.40058  0.14374  Biso   1.000  He
  Ne24     1.0000 0.68749  0.38638  0.11507  Biso   1.000  Ne
  Ne25     1.0000 0.95308  0.84199  0.90076  Biso   1.000  Ne
  He25     1.0000 0.95416  0.87359  0.90244  Biso   1.000  He
  He26     1.0000 0.93132  0.88957  0.88517  Biso   1.000  He
  Ne26     1.0000 0.93682  0.89503  0.85296  Biso   1.000  Ne
  Ne27     1.0000 0.10847  0.91056  0.19566  Biso   1.000  Ne
  He27     1.0000 0.12171  0.90056  0.16654  Biso   1.000  He
  He28     1.0000 0.10468  0.91194  0.14254  Biso   1.000  He
  Ne28     1.0000 0.11634  0.91065  0.11135  Biso   1.000  Ne
  Ne29     1.0000 0.88593  0.41439  0.38253  Biso   1.000  Ne
  He29     1.0000 0.85741  0.39877  0.39401  Biso   1.000  He
  He30     1.0000 0.84779  0.40716  0.42277  Biso   1.000  He
  Ne30     1.0000 0.81482  0.40006  0.43146  Biso   1.000  Ne
  Ne31     1.0000 0.64067  0.20279  0.43467  Biso   1.000  Ne
  He31     1.0000 0.63944  0.16927  0.43382  Biso   1.000  He
  He32     1.0000 0.66957  0.15408  0.43069  Biso   1.000  He
  Ne32     1.0000 0.66691  0.12274  0.43500  Biso   1.000  Ne
  Ne33     1.0000 0.90567  0.07469  0.94489  Biso   1.000  Ne
  He33     1.0000 0.90506  0.07768  0.91218  Biso   1.000  He
  He34     1.0000 0.93411  0.08027  0.89832  Biso   1.000  He
  Ne34     1.0000 0.93395  0.08204  0.86416  Biso   1.000  Ne
  Ne35     1.0000 0.86166  0.05457  0.17009  Biso   1.000  Ne
  He35     1.0000 0.88378  0.06022  0.14473  Biso   1.000  He
  He36     1.0000 0.87634  0.05444  0.11506  Biso   1.000  He
  Ne36     1.0000 0.90239  0.06008  0.09337  Biso   1.000  Ne
  Ne37     1.0000 0.68719  0.39229  0.85507  Biso   1.000  Ne
  He37     1.0000 0.70072  0.39435  0.88363  Biso   1.000  He
  He38     1.0000 0.68000  0.40358  0.91032  Biso   1.000  He
  Ne38     1.0000 0.69555  0.40388  0.94079  Biso   1.000  Ne
  Ne39     1.0000 0.76268  0.58432  0.09347  Biso   1.000  Ne
  He39     1.0000 0.73788  0.56855  0.10852  Biso   1.000  He
  He40     1.0000 0.70921  0.58526  0.11006  Biso   1.000  He
  Ne40     1.0000 0.68459  0.56897  0.12496  Biso   1.000  Ne
  Ne41     1.0000 0.15177  0.67943  0.43979  Biso   1.000  Ne
  He41     1.0000 0.12816  0.65567  0.44741  Biso   1.000  He
  He42     1.0000 0.09660  0.66537  0.45271  Biso   1.000  He
  Ne42     1.0000 0.07719  0.63886  0.46029  Biso   1.000  Ne
  Ne43     1.0000 0.93329  0.85839  0.13122  Biso   1.000  Ne
  He43     1.0000 0.92924  0.84164  0.15671  Biso   1.000  He
  He44     1.0000 0.90789  0.81816  0.15995  Biso   1.000  He
  Ne44     1.0000 0.91175  0.80232  0.18807  Biso   1.000  Ne
  Ne45     1.0000 0.87206  0.31977  0.59306  Biso   1.000  Ne
  He45     1.0000 0.86574  0.35257  0.60140  Biso   1.000  He
  He46     1.0000 0.83599  0.36332  0.59077  Biso   1.000  He
  Ne46     1.0000 0.82999  0.39361  0.60003  Biso   1.000  Ne
  Ne47     1.0000 0.91144  0.62569  0.45092  Biso   1.000  Ne
  He47     1.0000 0.92013  0.62130  0.41745  Biso   1.000  He
  He48     1.0000 0.92084  0.64943  0.40148  Biso   1.000  He
  Ne48     1.0000 0.92814  0.64526  0.36854  Biso   1.000  Ne
  Ne49     1.0000 0.84206  0.91372  0.92263  Biso   1.000  Ne
  He49     1.0000 0.81582  0.92889  0.90600  Biso   1.000  He
  He50     1.0000 0.81824  0.93179  0.87402  Biso   1.000  He
  Ne50     1.0000 0.78795  0.93486  0.85905  Biso   1.000  Ne
  Ne51     1.0000 0.02773  0.46548  0.52789  Biso   1.000  Ne
  He51     1.0000 0.04740  0.48049  0.50869  Biso   1.000  He
  He52     1.0000 0.06950  0.49603  0.52425  Biso   1.000  He
  Ne52     1.0000 0.09827  0.50528  0.50844  Biso   1.000  Ne
  Ne53     1.0000 0.91398  0.32572  0.26101  Biso   1.000  Ne
  He53     1.0000 0.92925  0.34161  0.23916  Biso   1.000  He
  He54     1.0000 0.95840  0.32800  0.22920  Biso   1.000  He
  Ne54     1.0000 0.97391  0.34818  0.21039  Biso   1.000  Ne
  Ne55     1.0000 0.17473  0.40531  0.58461  Biso   1.000  Ne
  He55     1.0000 0.14616  0.41367  0.57393  Biso   1.000  He
  He56     1.0000 0.12038  0.40664  0.59134  Biso   1.000  He
  Ne56     1.0000 0.09000  0.42030  0.58599  Biso   1.000  Ne
  Ne57     1.0000 0.12203  0.79455  0.97258  Biso   1.000  Ne
  He57     1.0000 0.12964  0.79289  0.94149  Biso   1.000  He
  He58     1.0000 0.11228  0.81193  0.92072  Biso   1.000  He
  Ne58     1.0000 0.12740  0.81453  0.89148  Biso   1.000  Ne
  Ne59     1.0000 0.37018  0.42370  0.18011  Biso   1.000  Ne
  He59     1.0000 0.34826  0.41390  0.15916  Biso   1.000  He
  He60     1.0000 0.35514  0.40899  0.12602  Biso   1.000  He
  Ne60     1.0000 0.32710  0.40080  0.10659  Biso   1.000  Ne
  Ne61     1.0000 0.09875  0.55998  0.42725  Biso   1.000  Ne
  He61     1.0000 0.11666  0.57991  0.41015  Biso   1.000  He
  He62     1.0000 0.11199  0.57648  0.37839  Biso   1.000  He
  Ne62     1.0000 0.13625  0.59464  0.36108  Biso   1.000  Ne
  Ne63     1.0000 0.60240  0.29079  0.11940  Biso   1.000  Ne
  He63     1.0000 0.61121  0.32140  0.11646  Biso   1.000  He
  He64     1.0000 0.60117  0.33534  0.09059  Biso   1.000  He
  Ne64     1.0000 0.60999  0.36707  0.09077  Biso   1.000  Ne
  Ne65     1.0000 0.10827  0.12624  0.83965  Biso   1.000  Ne
  He65     1.0000 0.09589  0.10073  0.85590  Biso   1.000  He
  He66     1.0000 0.09144  0.10451  0.88769  Biso   1.000  He
  Ne66     1.0000 0.09414  0.07356  0.90466  Biso   1.000  Ne
  Ne67     1.0000 0.11113  0.58491  0.58748  Biso   1.000  Ne
  He67     1.0000 0.09333  0.60770  0.60653  Biso   1.000  He
  He68     1.0000 0.11210  0.62925  0.62204  Biso   1.000  He
  Ne68     1.0000 0.09590  0.65061  0.64408  Biso   1.000  Ne
  Ne69     1.0000 0.99025  0.43629  0.45967  Biso   1.000  Ne
  He69     1.0000 0.98227  0.40524  0.45429  Biso   1.000  He
  He70     1.0000 0.94882  0.40054  0.44902  Biso   1.000  He
  Ne70     1.0000 0.94405  0.36804  0.44221  Biso   1.000  Ne
  Ne71     1.0000 0.09974  0.82460  0.18632  Biso   1.000  Ne
  He71     1.0000 0.12380  0.81680  0.16337  Biso   1.000  He
  He72     1.0000 0.11871  0.79084  0.14843  Biso   1.000  He
  Ne72     1.0000 0.14124  0.78124  0.12289  Biso   1.000  Ne
  Ne73     1.0000 0.42724  0.57441  0.08446  Biso   1.000  Ne
  He73     1.0000 0.42400  0.56819  0.11742  Biso   1.000  He
  He74     1.0000 0.43837  0.59287  0.13425  Biso   1.000  He
  Ne74     1.0000 0.44085  0.58842  0.16728  Biso   1.000  Ne
  Ne75     1.0000 0.11710  0.39997  0.40065  Biso   1.000  Ne
  He75     1.0000 0.14307  0.41166  0.42005  Biso   1.000  He
  He76     1.0000 0.17003  0.41472  0.40046  Biso   1.000  He
  Ne76     1.0000 0.19609  0.42669  0.41541  Biso   1.000  Ne
  Ne77     1.0000 0.62412  0.90707  0.67440  Biso   1.000  Ne
  He77     1.0000 0.65633  0.89574  0.66688  Biso   1.000  He
  He78     1.0000 0.66517  0.91099  0.63814  Biso   1.000  He
  Ne78     1.0000 0.69683  0.90607  0.62701  Biso   1.000  Ne
  Ne79     1.0000 0.51076  0.05953  0.48665  Biso   1.000  Ne
  He79     1.0000 0.50259  0.06452  0.45699  Biso   1.000  He
  He80     1.0000 0.48873  0.03761  0.44248  Biso   1.000  He
  Ne80     1.0000 0.47892  0.04373  0.41136  Biso   1.000  Ne
