data_image0
_cell_length_a       47.2149
_cell_length_b       47.2035
_cell_length_c       46.5423
_cell_angle_alpha    90
_cell_angle_beta     90
_cell_angle_gamma    90

_symmetry_space_group_name_H-M    "P 1"
_symmetry_int_tables_number       1

loop_
  _symmetry_equiv_pos_as_xyz
  'x, y, z'

loop_
  _atom_site_label
  _atom_site_occupancy
  _atom_site_fract_x
  _atom_site_fract_y
  _atom_site_fract_z
  _atom_site_thermal_displace_type
  _atom_site_B_iso_or_equiv
  _atom_site_type_symbol
  Ne1      1.0000 0.56077  0.36713  0.09567  Biso   1.000  Ne
  He1      1.0000 0.58103  0.34870  0.11117  Biso   1.000  He
  He2      1.0000 0.58528  0.31673  0.09889  Biso   1.000  He
  Ne2      1.0000 0.61043  0.30228  0.11350  Biso   1.000  Ne
  Ne3      1.0000 0.66339  0.39026  0.93752  Biso   1.000  Ne
  He3      1.0000 0.69374  0.39333  0.94627  Biso   1.000  He
  He4      1.0000 0.71383  0.40881  0.92584  Biso   1.000  He
  Ne4      1.0000 0.74826  0.40545  0.93139  Biso   1.000  Ne
  Ne5      1.0000 0.08263  0.62242  0.59507  Biso   1.000  Ne
  He5      1.0000 0.09467  0.59460  0.61216  Biso   1.000  He
  He6      1.0000 0.11008  0.59725  0.63913  Biso   1.000  He
  Ne6      1.0000 0.11400  0.56916  0.65809  Biso   1.000  Ne
  Ne7      1.0000 0.40568  0.60352  0.22405  Biso   1.000  Ne
  He7      1.0000 0.39891  0.58957  0.19561  Biso   1.000  He
  He8      1.0000 0.36898  0.59781  0.18505  Biso   1.000  He
  Ne8      1.0000 0.35942  0.58592  0.15787  Biso   1.000  Ne
  Ne9      1.0000 0.87413  0.05825  0.93730  Biso   1.000  Ne
  He9      1.0000 0.88705  0.05041  0.90786  Biso   1.000  He
  He10     1.0000 0.88486  0.07346  0.88183  Biso   1.000  He
  Ne10     1.0000 0.89878  0.06264  0.85489  Biso   1.000  Ne
  Ne11     1.0000 0.57811  0.58020  0.89354  Biso   1.000  Ne
  He11     1.0000 0.58536  0.60860  0.90718  Biso   1.000  He
  He12     1.0000 0.58771  0.60618  0.94047  Biso   1.000  He
  Ne12     1.0000 0.59942  0.63460  0.95434  Biso   1.000  Ne
  Ne13     1.0000 0.09959  0.90245  0.97021  Biso   1.000  Ne
  He13     1.0000 0.06932  0.91764  0.97067  Biso   1.000  He
  He14     1.0000 0.06432  0.93495  0.99819  Biso   1.000  He
  Ne14     1.0000 0.03273  0.94844  0.00345  Biso   1.000  Ne
  Ne15     1.0000 0.58620  0.60264  0.11659  Biso   1.000  Ne
  He15     1.0000 0.56578  0.61435  0.13983  Biso   1.000  He
  He16     1.0000 0.58592  0.63293  0.16031  Biso   1.000  He
  Ne16     1.0000 0.57013  0.64576  0.18601  Biso   1.000  Ne
  Ne17     1.0000 0.06978  0.15742  0.93406  Biso   1.000  Ne
  He17     1.0000 0.07707  0.12712  0.94717  Biso   1.000  He
  He18     1.0000 0.09808  0.11014  0.92723  Biso   1.000  He
  Ne18     1.0000 0.10357  0.08192  0.94000  Biso   1.000  Ne
  Ne19     1.0000 0.42064  0.51993  0.96530  Biso   1.000  Ne
  He19     1.0000 0.44820  0.54088  0.96568  Biso   1.000  He
  He20     1.0000 0.47606  0.53043  0.95299  Biso   1.000  He
  Ne20     1.0000 0.50127  0.55108  0.95727  Biso   1.000  Ne
  Ne21     1.0000 0.05046  0.09366  0.11734  Biso   1.000  Ne
  He21     1.0000 0.04834  0.09258  0.15084  Biso   1.000  He
  He22     1.0000 0.05517  0.12161  0.16118  Biso   1.000  He
  Ne22     1.0000 0.05905  0.12337  0.19629  Biso   1.000  Ne
  Ne23     1.0000 0.42639  0.08095  0.75821  Biso   1.000  Ne
  He23     1.0000 0.40353  0.07758  0.73325  Biso   1.000  He
  He24     1.0000 0.41915  0.06883  0.70445  Biso   1.000  He
  Ne24     1.0000 0.39913  0.05403  0.68014  Biso   1.000  Ne
  Ne25     1.0000 0.90605  0.39927  0.63592  Biso   1.000  Ne
  He25     1.0000 0.90600  0.38509  0.60833  Biso   1.000  He
  He26     1.0000 0.90338  0.35205  0.61022  Biso   1.000  He
  Ne26     1.0000 0.90442  0.33819  0.58364  Biso   1.000  Ne
  Ne27     1.0000 0.57927  0.26534  0.95224  Biso   1.000  Ne
  He27     1.0000 0.55659  0.24253  0.95754  Biso   1.000  He
  He28     1.0000 0.57042  0.21760  0.97227  Biso   1.000  He
  Ne28     1.0000 0.54915  0.18971  0.97593  Biso   1.000  Ne
  Ne29     1.0000 0.59596  0.80934  0.59175  Biso   1.000  Ne
  He29     1.0000 0.58624  0.83967  0.59980  Biso   1.000  He
  He30     1.0000 0.57985  0.86292  0.57449  Biso   1.000  He
  Ne30     1.0000 0.56891  0.88956  0.58808  Biso   1.000  Ne
  Ne31     1.0000 0.94647  0.07334  0.08849  Biso   1.000  Ne
  He31     1.0000 0.91724  0.07580  0.07482  Biso   1.000  He
  He32     1.0000 0.89244  0.06611  0.09655  Biso   1.000  He
  Ne32     1.0000 0.86294  0.06861  0.08402  Biso   1.000  Ne
  Ne33     1.0000 0.90085  0.14375  0.91314  Biso   1.000  Ne
  He33     1.0000 0.87488  0.16082  0.92120  Biso   1.000  He
  He34     1.0000 0.85008  0.14152  0.93396  Biso   1.000  He
  Ne34     1.0000 0.82598  0.15920  0.94524  Biso   1.000  Ne
  Ne35     1.0000 0.91699  0.39859  0.40341  Biso   1.000  Ne
  He35     1.0000 0.90692  0.40448  0.37207  Biso   1.000  He
  He36     1.0000 0.91317  0.37844  0.35003  Biso   1.000  He
  Ne36     1.0000 0.90743  0.38670  0.31632  Biso   1.000  Ne
  Ne37     1.0000 0.28501  0.29764  0.12341  Biso   1.000  Ne
  He37     1.0000 0.25286  0.28852  0.12235  Biso   1.000  He
  He38     1.0000 0.23474  0.30531  0.09773  Biso   1.000  He
  Ne38     1.0000 0.20720  0.29151  0.09935  Biso   1.000  Ne
  Ne39     1.0000 0.14388  0.12944  0.10579  Biso   1.000  Ne
  He39     1.0000 0.16634  0.12050  0.12918  Biso   1.000  He
  He40     1.0000 0.16112  0.09161  0.14612  Biso   1.000  He
  Ne40     1.0000 0.14040  0.09266  0.17294  Biso   1.000  Ne
  Ne41     1.0000 0.75936  0.90047  0.08728  Biso   1.000  Ne
  He41     1.0000 0.77998  0.88535  0.11056  Biso   1.000  He
  He42     1.0000 0.81098  0.88296  0.10254  Biso   1.000  He
  Ne42     1.0000 0.82952  0.86892  0.12467  Biso   1.000  Ne
  Ne43     1.0000 0.90703  0.16619  0.10603  Biso   1.000  Ne
  He43     1.0000 0.89104  0.17405  0.13087  Biso   1.000  He
  He44     1.0000 0.86587  0.15381  0.13558  Biso   1.000  He
  Ne44     1.0000 0.84319  0.16105  0.16268  Biso   1.000  Ne
  Ne45     1.0000 0.06740  0.31472  0.60399  Biso   1.000  Ne
  He45     1.0000 0.07544  0.34591  0.60007  Biso   1.000  He
  He46     1.0000 0.06283  0.36751  0.62165  Biso   1.000  He
  Ne46     1.0000 0.07130  0.39818  0.61034  Biso   1.000  Ne
  Ne47     1.0000 0.05676  0.58748  0.40421  Biso   1.000  Ne
  He47     1.0000 0.08821  0.58506  0.41225  Biso   1.000  He
  He48     1.0000 0.09481  0.56479  0.43769  Biso   1.000  He
  Ne48     1.0000 0.12641  0.56088  0.44453  Biso   1.000  Ne
  Ne49     1.0000 0.83725  0.90560  0.78568  Biso   1.000  Ne
  He49     1.0000 0.84689  0.90777  0.81717  Biso   1.000  He
  He50     1.0000 0.87922  0.90755  0.82241  Biso   1.000  He
  Ne50     1.0000 0.88643  0.90867  0.85353  Biso   1.000  Ne
  Ne51     1.0000 0.88691  0.93468  0.05706  Biso   1.000  Ne
  He51     1.0000 0.90742  0.96102  0.06255  Biso   1.000  He
  He52     1.0000 0.93529  0.95455  0.07988  Biso   1.000  He
  Ne52     1.0000 0.95205  0.98144  0.09096  Biso   1.000  Ne
  Ne53     1.0000 0.87511  0.89475  0.94028  Biso   1.000  Ne
  He53     1.0000 0.90435  0.91151  0.93805  Biso   1.000  He
  He54     1.0000 0.90876  0.93839  0.95725  Biso   1.000  He
  Ne54     1.0000 0.93666  0.95550  0.95641  Biso   1.000  Ne
  Ne55     1.0000 0.53124  0.06196  0.57883  Biso   1.000  Ne
  He55     1.0000 0.56340  0.06517  0.57257  Biso   1.000  He
  He56     1.0000 0.58508  0.06668  0.59780  Biso   1.000  He
  Ne56     1.0000 0.61577  0.06374  0.58751  Biso   1.000  Ne
  Ne57     1.0000 0.40353  0.80270  0.62807  Biso   1.000  Ne
  He57     1.0000 0.40378  0.82565  0.65063  Biso   1.000  He
  He58     1.0000 0.43391  0.83706  0.65786  Biso   1.000  He
  Ne58     1.0000 0.43681  0.85741  0.68411  Biso   1.000  Ne
  Ne59     1.0000 0.45214  0.54760  0.09883  Biso   1.000  Ne
  He59     1.0000 0.44753  0.53156  0.06932  Biso   1.000  He
  He60     1.0000 0.42469  0.50875  0.07117  Biso   1.000  He
  Ne60     1.0000 0.42327  0.48873  0.04498  Biso   1.000  Ne
  Ne61     1.0000 0.74974  0.36045  0.09864  Biso   1.000  Ne
  He61     1.0000 0.72237  0.38282  0.09562  Biso   1.000  He
  He62     1.0000 0.69411  0.37259  0.10867  Biso   1.000  He
  Ne62     1.0000 0.66510  0.38614  0.10096  Biso   1.000  Ne
  Ne63     1.0000 0.97635  0.47628  0.43540  Biso   1.000  Ne
  He63     1.0000 0.94968  0.49283  0.43874  Biso   1.000  He
  He64     1.0000 0.95675  0.52470  0.43487  Biso   1.000  He
  Ne64     1.0000 0.93242  0.54692  0.43748  Biso   1.000  Ne
  Ne65     1.0000 0.33579  0.90849  0.33857  Biso   1.000  Ne
  He65     1.0000 0.33938  0.90371  0.36975  Biso   1.000  He
  He66     1.0000 0.31050  0.89452  0.38098  Biso   1.000  He
  Ne66     1.0000 0.30666  0.88954  0.41355  Biso   1.000  Ne
  Ne67     1.0000 0.85394  0.57881  0.38157  Biso   1.000  Ne
  He67     1.0000 0.82664  0.56701  0.39822  Biso   1.000  He
  He68     1.0000 0.82796  0.57608  0.43190  Biso   1.000  He
  Ne68     1.0000 0.80567  0.56491  0.45429  Biso   1.000  Ne
  Ne69     1.0000 0.57153  0.05017  0.38773  Biso   1.000  Ne
  He69     1.0000 0.58453  0.07042  0.41170  Biso   1.000  He
  He70     1.0000 0.60478  0.09338  0.40714  Biso   1.000  He
  Ne70     1.0000 0.60883  0.11186  0.43428  Biso   1.000  Ne
  Ne71     1.0000 0.09302  0.89862  0.14282  Biso   1.000  Ne
  He71     1.0000 0.11348  0.87657  0.12680  Biso   1.000  He
  He72     1.0000 0.09754  0.84743  0.11869  Biso   1.000  He
  Ne72     1.0000 0.11197  0.82670  0.10009  Biso   1.000  Ne
  Ne73     1.0000 0.32847  0.15675  0.78821  Biso   1.000  Ne
  He73     1.0000 0.33995  0.15561  0.75677  Biso   1.000  He
  He74     1.0000 0.37390  0.15117  0.75201  Biso   1.000  He
  Ne74     1.0000 0.38204  0.15483  0.71797  Biso   1.000  Ne
  Ne75     1.0000 0.88628  0.09585  0.27601  Biso   1.000  Ne
  He75     1.0000 0.89865  0.09198  0.24507  Biso   1.000  He
  He76     1.0000 0.87536  0.08419  0.22434  Biso   1.000  He
  Ne76     1.0000 0.88581  0.08258  0.19112  Biso   1.000  Ne
  Ne77     1.0000 0.59998  0.13680  0.33782  Biso   1.000  Ne
  He77     1.0000 0.59774  0.10432  0.32893  Biso   1.000  He
  He78     1.0000 0.59190  0.09859  0.29807  Biso   1.000  He
  Ne78     1.0000 0.58865  0.06555  0.29100  Biso   1.000  Ne
  Ne79     1.0000 0.39956  0.77407  0.35256  Biso   1.000  Ne
  He79     1.0000 0.39101  0.77725  0.38571  Biso   1.000  He
  He80     1.0000 0.41353  0.78744  0.40811  Biso   1.000  He
  Ne80     1.0000 0.39998  0.79158  0.43784  Biso   1.000  Ne
  Ne81     1.0000 0.31821  0.86811  0.59832  Biso   1.000  Ne
  He81     1.0000 0.30022  0.85613  0.62672  Biso   1.000  He
  He82     1.0000 0.29431  0.87585  0.64944  Biso   1.000  He
  Ne82     1.0000 0.27367  0.86403  0.67383  Biso   1.000  Ne
  Ne83     1.0000 0.92392  0.61485  0.64572  Biso   1.000  Ne
  He83     1.0000 0.91500  0.59085  0.62542  Biso   1.000  He
  He84     1.0000 0.91309  0.56136  0.63930  Biso   1.000  He
  Ne84     1.0000 0.90282  0.53819  0.61694  Biso   1.000  Ne
  Ne85     1.0000 0.08165  0.05498  0.79446  Biso   1.000  Ne
  He85     1.0000 0.07345  0.08593  0.79171  Biso   1.000  He
  He86     1.0000 0.08287  0.10449  0.81886  Biso   1.000  He
  Ne86     1.0000 0.07792  0.13710  0.81413  Biso   1.000  Ne
  Ne87     1.0000 0.07618  0.36864  0.39748  Biso   1.000  Ne
  He87     1.0000 0.08342  0.37795  0.36416  Biso   1.000  He
  He88     1.0000 0.10036  0.40735  0.36276  Biso   1.000  He
  Ne88     1.0000 0.11133  0.41619  0.33065  Biso   1.000  Ne
  Ne89     1.0000 0.41171  0.67431  0.10944  Biso   1.000  Ne
  He89     1.0000 0.39411  0.64832  0.09629  Biso   1.000  He
  He90     1.0000 0.41315  0.61963  0.08916  Biso   1.000  He
  Ne90     1.0000 0.39257  0.59482  0.08130  Biso   1.000  Ne
  Ne91     1.0000 0.60307  0.91177  0.69171  Biso   1.000  Ne
  He91     1.0000 0.62800  0.89459  0.67697  Biso   1.000  He
  He92     1.0000 0.66275  0.90678  0.68349  Biso   1.000  He
  Ne92     1.0000 0.68793  0.89343  0.66866  Biso   1.000  Ne
  Ne93     1.0000 0.13715  0.38830  0.44139  Biso   1.000  Ne
  He93     1.0000 0.12431  0.41960  0.44363  Biso   1.000  He
  He94     1.0000 0.10041  0.42343  0.46513  Biso   1.000  He
  Ne94     1.0000 0.08954  0.45276  0.46518  Biso   1.000  Ne
  Ne95     1.0000 0.41677  0.93079  0.45308  Biso   1.000  Ne
  He95     1.0000 0.41164  0.91722  0.42461  Biso   1.000  He
  He96     1.0000 0.42813  0.88808  0.42469  Biso   1.000  He
  Ne96     1.0000 0.42737  0.87326  0.39637  Biso   1.000  Ne
  Ne97     1.0000 0.40370  0.08451  0.58593  Biso   1.000  Ne
  He97     1.0000 0.40969  0.11545  0.59866  Biso   1.000  He
  He98     1.0000 0.38460  0.12661  0.61485  Biso   1.000  He
  Ne98     1.0000 0.38793  0.15618  0.62654  Biso   1.000  Ne
  Ne99     1.0000 0.18948  0.13716  0.94373  Biso   1.000  Ne
  He99     1.0000 0.19953  0.11050  0.92875  Biso   1.000  He
  He100    1.0000 0.18454  0.10393  0.90208  Biso   1.000  He
  Ne100    1.0000 0.19515  0.07457  0.88912  Biso   1.000  Ne
