data_image0
_cell_length_a       47.75
_cell_length_b       46.8742
_cell_length_c       46.4902
_cell_angle_alpha    90
_cell_angle_beta     90
_cell_angle_gamma    90

_symmetry_space_group_name_H-M    "P 1"
_symmetry_int_tables_number       1

loop_
  _symmetry_equiv_pos_as_xyz
  'x, y, z'

loop_
  _atom_site_label
  _atom_site_occupancy
  _atom_site_fract_x
  _atom_site_fract_y
  _atom_site_fract_z
  _atom_site_thermal_displace_type
  _atom_site_B_iso_or_equiv
  _atom_site_type_symbol
  Ne1      1.0000 0.81677  0.74724  0.56369  Biso   1.000  Ne
  He1      1.0000 0.80129  0.72210  0.57942  Biso   1.000  He
  He2      1.0000 0.77879  0.73338  0.60052  Biso   1.000  He
  Ne2      1.0000 0.76621  0.70914  0.61579  Biso   1.000  Ne
  Ne3      1.0000 0.42488  0.05919  0.49284  Biso   1.000  Ne
  He3      1.0000 0.43707  0.03848  0.47052  Biso   1.000  He
  He4      1.0000 0.41417  0.02190  0.45066  Biso   1.000  He
  Ne4      1.0000 0.42784  0.00174  0.42463  Biso   1.000  Ne
  Ne5      1.0000 0.25409  0.91510  0.91184  Biso   1.000  Ne
  He5      1.0000 0.22332  0.90623  0.91558  Biso   1.000  He
  He6      1.0000 0.20269  0.93128  0.91394  Biso   1.000  He
  Ne6      1.0000 0.17098  0.92534  0.92179  Biso   1.000  Ne
  Ne7      1.0000 0.18161  0.09959  0.13288  Biso   1.000  Ne
  He7      1.0000 0.18756  0.08523  0.16465  Biso   1.000  He
  He8      1.0000 0.16058  0.08557  0.18381  Biso   1.000  He
  Ne8      1.0000 0.16991  0.08429  0.21541  Biso   1.000  Ne
  Ne9      1.0000 0.90778  0.63236  0.31976  Biso   1.000  Ne
  He9      1.0000 0.89892  0.64677  0.34936  Biso   1.000  He
  He10     1.0000 0.92590  0.66337  0.35850  Biso   1.000  He
  Ne10     1.0000 0.92472  0.67583  0.38931  Biso   1.000  Ne
  Ne11     1.0000 0.26672  0.20577  0.98451  Biso   1.000  Ne
  He11     1.0000 0.25654  0.19437  0.95542  Biso   1.000  He
  He12     1.0000 0.23712  0.21488  0.93672  Biso   1.000  He
  Ne12     1.0000 0.22513  0.19926  0.91000  Biso   1.000  Ne
  Ne13     1.0000 0.60699  0.10353  0.73589  Biso   1.000  Ne
  He13     1.0000 0.59247  0.07662  0.74788  Biso   1.000  He
  He14     1.0000 0.57309  0.08484  0.77529  Biso   1.000  He
  Ne14     1.0000 0.55770  0.06221  0.78807  Biso   1.000  Ne
  Ne15     1.0000 0.92062  0.85005  0.11033  Biso   1.000  Ne
  He15     1.0000 0.90249  0.87856  0.11475  Biso   1.000  He
  He16     1.0000 0.91346  0.89730  0.14132  Biso   1.000  He
  Ne16     1.0000 0.89497  0.92380  0.15236  Biso   1.000  Ne
  Ne17     1.0000 0.97034  0.44001  0.52638  Biso   1.000  Ne
  He17     1.0000 0.99393  0.45366  0.54446  Biso   1.000  He
  He18     1.0000 0.01646  0.46919  0.52834  Biso   1.000  He
  Ne18     1.0000 0.04123  0.48156  0.54609  Biso   1.000  Ne
  Ne19     1.0000 0.59814  0.92646  0.41493  Biso   1.000  Ne
  He19     1.0000 0.62882  0.93576  0.41328  Biso   1.000  He
  He20     1.0000 0.65281  0.91566  0.39625  Biso   1.000  He
  Ne20     1.0000 0.68393  0.92984  0.39927  Biso   1.000  Ne
  Ne21     1.0000 0.43490  0.92203  0.38786  Biso   1.000  Ne
  He21     1.0000 0.41721  0.92898  0.35946  Biso   1.000  He
  He22     1.0000 0.40941  0.90400  0.33890  Biso   1.000  He
  Ne22     1.0000 0.42578  0.90293  0.30868  Biso   1.000  Ne
  Ne23     1.0000 0.35210  0.42456  0.11033  Biso   1.000  Ne
  He23     1.0000 0.32632  0.42222  0.08947  Biso   1.000  He
  He24     1.0000 0.29548  0.42864  0.10371  Biso   1.000  He
  Ne24     1.0000 0.26931  0.42319  0.08314  Biso   1.000  Ne
  Ne25     1.0000 0.90130  0.31704  0.40580  Biso   1.000  Ne
  He25     1.0000 0.89020  0.34069  0.38718  Biso   1.000  He
  He26     1.0000 0.87483  0.36707  0.40421  Biso   1.000  He
  Ne26     1.0000 0.86552  0.39254  0.38443  Biso   1.000  Ne
  Ne27     1.0000 0.34332  0.80858  0.39014  Biso   1.000  Ne
  He27     1.0000 0.36953  0.82684  0.39427  Biso   1.000  He
  He28     1.0000 0.39925  0.81307  0.38888  Biso   1.000  He
  Ne28     1.0000 0.42073  0.83433  0.39184  Biso   1.000  Ne
  Ne29     1.0000 0.80744  0.40977  0.25994  Biso   1.000  Ne
  He29     1.0000 0.77261  0.41685  0.25422  Biso   1.000  He
  He30     1.0000 0.75243  0.40333  0.27729  Biso   1.000  He
  Ne30     1.0000 0.73292  0.38090  0.26364  Biso   1.000  Ne
  Ne31     1.0000 0.30317  0.96798  0.96723  Biso   1.000  Ne
  He31     1.0000 0.30859  0.98880  0.99269  Biso   1.000  He
  He32     1.0000 0.30371  0.02189  0.98606  Biso   1.000  He
  Ne32     1.0000 0.30705  0.04475  0.01294  Biso   1.000  Ne
  Ne33     1.0000 0.75691  0.17099  0.88913  Biso   1.000  Ne
  He33     1.0000 0.78526  0.17446  0.87307  Biso   1.000  He
  He34     1.0000 0.78858  0.15689  0.84523  Biso   1.000  He
  Ne34     1.0000 0.81442  0.16593  0.82454  Biso   1.000  Ne
  Ne35     1.0000 0.89054  0.83688  0.90313  Biso   1.000  Ne
  He35     1.0000 0.86327  0.85438  0.90171  Biso   1.000  He
  He36     1.0000 0.86860  0.88409  0.88607  Biso   1.000  He
  Ne36     1.0000 0.84223  0.90338  0.88466  Biso   1.000  Ne
  Ne37     1.0000 0.07184  0.00379  0.01198  Biso   1.000  Ne
  He37     1.0000 0.04396  0.98456  0.00677  Biso   1.000  He
  He38     1.0000 0.04724  0.95236  0.01639  Biso   1.000  He
  Ne38     1.0000 0.02200  0.93147  0.01175  Biso   1.000  Ne
  Ne39     1.0000 0.51881  0.40747  0.95229  Biso   1.000  Ne
  He39     1.0000 0.53962  0.41047  0.92807  Biso   1.000  He
  He40     1.0000 0.52804  0.43358  0.90773  Biso   1.000  He
  Ne40     1.0000 0.54761  0.44002  0.88214  Biso   1.000  Ne
  Ne41     1.0000 0.36206  0.59503  0.10484  Biso   1.000  Ne
  He41     1.0000 0.33940  0.58657  0.12339  Biso   1.000  He
  He42     1.0000 0.32994  0.61121  0.14638  Biso   1.000  He
  Ne42     1.0000 0.30844  0.59799  0.16661  Biso   1.000  Ne
  Ne43     1.0000 0.73115  0.44795  0.49509  Biso   1.000  Ne
  He43     1.0000 0.72306  0.45098  0.52474  Biso   1.000  He
  He44     1.0000 0.73725  0.42585  0.54305  Biso   1.000  He
  Ne44     1.0000 0.72903  0.42190  0.57276  Biso   1.000  Ne
  Ne45     1.0000 0.50698  0.59040  0.96167  Biso   1.000  Ne
  He45     1.0000 0.53274  0.57869  0.94046  Biso   1.000  He
  He46     1.0000 0.56525  0.58507  0.94729  Biso   1.000  He
  Ne46     1.0000 0.58455  0.56498  0.92979  Biso   1.000  Ne
  Ne47     1.0000 0.62605  0.80373  0.29364  Biso   1.000  Ne
  He47     1.0000 0.61700  0.83608  0.29509  Biso   1.000  He
  He48     1.0000 0.58586  0.84418  0.30916  Biso   1.000  He
  Ne48     1.0000 0.57737  0.87625  0.30673  Biso   1.000  Ne
  Ne49     1.0000 0.53992  0.44549  0.05500  Biso   1.000  Ne
  He49     1.0000 0.54426  0.45886  0.02333  Biso   1.000  He
  He50     1.0000 0.57312  0.47019  0.01839  Biso   1.000  He
  Ne50     1.0000 0.57933  0.47555  0.98828  Biso   1.000  Ne
  Ne51     1.0000 0.24774  0.11552  0.95901  Biso   1.000  Ne
  He51     1.0000 0.23970  0.09813  0.93266  Biso   1.000  He
  He52     1.0000 0.25823  0.10152  0.90558  Biso   1.000  He
  Ne52     1.0000 0.28347  0.08009  0.89952  Biso   1.000  Ne
  Ne53     1.0000 0.15105  0.29064  0.93696  Biso   1.000  Ne
  He53     1.0000 0.18433  0.29625  0.93358  Biso   1.000  He
  He54     1.0000 0.19486  0.32813  0.93071  Biso   1.000  He
  Ne54     1.0000 0.22684  0.32873  0.92656  Biso   1.000  Ne
  Ne55     1.0000 0.05046  0.41021  0.39793  Biso   1.000  Ne
  He55     1.0000 0.06755  0.43780  0.41293  Biso   1.000  He
  He56     1.0000 0.05335  0.45061  0.43964  Biso   1.000  He
  Ne56     1.0000 0.07490  0.46841  0.45625  Biso   1.000  Ne
  Ne57     1.0000 0.95669  0.97293  0.07981  Biso   1.000  Ne
  He57     1.0000 0.93836  0.94559  0.07718  Biso   1.000  He
  He58     1.0000 0.91113  0.95413  0.05852  Biso   1.000  He
  Ne58     1.0000 0.88548  0.93124  0.05504  Biso   1.000  Ne
  Ne59     1.0000 0.42361  0.22797  0.42333  Biso   1.000  Ne
  He59     1.0000 0.42391  0.26170  0.42986  Biso   1.000  He
  He60     1.0000 0.44725  0.27810  0.42134  Biso   1.000  He
  Ne60     1.0000 0.44663  0.30875  0.43145  Biso   1.000  Ne
  Ne61     1.0000 0.87163  0.68897  0.92781  Biso   1.000  Ne
  He61     1.0000 0.84611  0.67472  0.94482  Biso   1.000  He
  He62     1.0000 0.83447  0.65075  0.92514  Biso   1.000  He
  Ne62     1.0000 0.81137  0.63174  0.93670  Biso   1.000  Ne
  Ne63     1.0000 0.43198  0.92509  0.57419  Biso   1.000  Ne
  He63     1.0000 0.40024  0.91373  0.56633  Biso   1.000  He
  He64     1.0000 0.37651  0.91709  0.58832  Biso   1.000  He
  Ne64     1.0000 0.34751  0.90570  0.57517  Biso   1.000  Ne
  Ne65     1.0000 0.15738  0.31746  0.58852  Biso   1.000  Ne
  He65     1.0000 0.12661  0.30342  0.58572  Biso   1.000  He
  He66     1.0000 0.10261  0.32157  0.60228  Biso   1.000  He
  Ne66     1.0000 0.07379  0.30646  0.60390  Biso   1.000  Ne
  Ne67     1.0000 0.22309  0.95503  0.61544  Biso   1.000  Ne
  He67     1.0000 0.23212  0.92327  0.61055  Biso   1.000  He
  He68     1.0000 0.24277  0.92189  0.57893  Biso   1.000  He
  Ne68     1.0000 0.25142  0.89235  0.56882  Biso   1.000  Ne
  Ne69     1.0000 0.37553  0.09200  0.40064  Biso   1.000  Ne
  He69     1.0000 0.34923  0.10180  0.41589  Biso   1.000  He
  He70     1.0000 0.35048  0.13194  0.42675  Biso   1.000  He
  Ne70     1.0000 0.32007  0.14187  0.43466  Biso   1.000  Ne
  Ne71     1.0000 0.93396  0.49600  0.45602  Biso   1.000  Ne
  He71     1.0000 0.92875  0.48783  0.42366  Biso   1.000  He
  He72     1.0000 0.92528  0.45456  0.41757  Biso   1.000  He
  Ne72     1.0000 0.95401  0.43940  0.41197  Biso   1.000  Ne
  Ne73     1.0000 0.13459  0.84034  0.08467  Biso   1.000  Ne
  He73     1.0000 0.12086  0.81137  0.08664  Biso   1.000  He
  He74     1.0000 0.14148  0.78976  0.09700  Biso   1.000  He
  Ne74     1.0000 0.12787  0.75630  0.09958  Biso   1.000  Ne
  Ne75     1.0000 0.20529  0.89274  0.10278  Biso   1.000  Ne
  He75     1.0000 0.18977  0.89611  0.13322  Biso   1.000  He
  He76     1.0000 0.20656  0.88708  0.15826  Biso   1.000  He
  Ne76     1.0000 0.19246  0.89259  0.18574  Biso   1.000  Ne
  Ne77     1.0000 0.34331  0.93418  0.42151  Biso   1.000  Ne
  He77     1.0000 0.31420  0.91944  0.42121  Biso   1.000  He
  He78     1.0000 0.31099  0.89605  0.39801  Biso   1.000  He
  Ne78     1.0000 0.28159  0.88120  0.39764  Biso   1.000  Ne
  Ne79     1.0000 0.46141  0.71569  0.65532  Biso   1.000  Ne
  He79     1.0000 0.46045  0.74962  0.65681  Biso   1.000  He
  He80     1.0000 0.42885  0.76143  0.66285  Biso   1.000  He
  Ne80     1.0000 0.42592  0.79330  0.66666  Biso   1.000  Ne
  Ne81     1.0000 0.37687  0.77642  0.90726  Biso   1.000  Ne
  He81     1.0000 0.39725  0.78155  0.93138  Biso   1.000  He
  He82     1.0000 0.42905  0.79219  0.92153  Biso   1.000  He
  Ne82     1.0000 0.45429  0.77062  0.91649  Biso   1.000  Ne
  Ne83     1.0000 0.60450  0.11462  0.56782  Biso   1.000  Ne
  He83     1.0000 0.59389  0.11161  0.59936  Biso   1.000  He
  He84     1.0000 0.61064  0.08921  0.61682  Biso   1.000  He
  Ne84     1.0000 0.60194  0.09170  0.64887  Biso   1.000  Ne
  Ne85     1.0000 0.56392  0.32803  0.84545  Biso   1.000  Ne
  He85     1.0000 0.57845  0.33276  0.87485  Biso   1.000  He
  He86     1.0000 0.60415  0.35314  0.87153  Biso   1.000  He
  Ne86     1.0000 0.62585  0.35310  0.89491  Biso   1.000  Ne
  Ne87     1.0000 0.40390  0.10272  0.32643  Biso   1.000  Ne
  He87     1.0000 0.37570  0.12212  0.31604  Biso   1.000  He
  He88     1.0000 0.36435  0.14501  0.34053  Biso   1.000  He
  Ne88     1.0000 0.37510  0.17476  0.33759  Biso   1.000  Ne
  Ne89     1.0000 0.89514  0.17792  0.85437  Biso   1.000  Ne
  He89     1.0000 0.91701  0.16040  0.86916  Biso   1.000  He
  He90     1.0000 0.90453  0.14331  0.89848  Biso   1.000  He
  Ne90     1.0000 0.92890  0.12859  0.91292  Biso   1.000  Ne
  Ne91     1.0000 0.25592  0.35120  0.07773  Biso   1.000  Ne
  He91     1.0000 0.24235  0.34934  0.10715  Biso   1.000  He
  He92     1.0000 0.21319  0.36597  0.11200  Biso   1.000  He
  Ne92     1.0000 0.20198  0.36474  0.14236  Biso   1.000  Ne
  Ne93     1.0000 0.94111  0.88639  0.84003  Biso   1.000  Ne
  He93     1.0000 0.92124  0.91300  0.82985  Biso   1.000  He
  He94     1.0000 0.91103  0.91038  0.79759  Biso   1.000  He
  Ne94     1.0000 0.88246  0.92489  0.78547  Biso   1.000  Ne
  Ne95     1.0000 0.82487  0.91476  0.10905  Biso   1.000  Ne
  He95     1.0000 0.82392  0.88651  0.09214  Biso   1.000  He
  He96     1.0000 0.79864  0.88503  0.07144  Biso   1.000  He
  Ne96     1.0000 0.79389  0.85374  0.05761  Biso   1.000  Ne
  Ne97     1.0000 0.31880  0.81539  0.59310  Biso   1.000  Ne
  He97     1.0000 0.34550  0.81065  0.57393  Biso   1.000  He
  He98     1.0000 0.37014  0.79802  0.59023  Biso   1.000  He
  Ne98     1.0000 0.39681  0.79403  0.56780  Biso   1.000  Ne
  Ne99     1.0000 0.87715  0.43282  0.67363  Biso   1.000  Ne
  He99     1.0000 0.85351  0.41639  0.69127  Biso   1.000  He
  He100    1.0000 0.86483  0.39659  0.71544  Biso   1.000  He
  Ne100    1.0000 0.84139  0.38227  0.73463  Biso   1.000  Ne
  Ne101    1.0000 0.65384  0.90870  0.30399  Biso   1.000  Ne
  He101    1.0000 0.65230  0.92977  0.27727  Biso   1.000  He
  He102    1.0000 0.67292  0.92196  0.25233  Biso   1.000  He
  Ne102    1.0000 0.66938  0.94117  0.22461  Biso   1.000  Ne
  Ne103    1.0000 0.08779  0.20437  0.70830  Biso   1.000  Ne
  He103    1.0000 0.09191  0.23650  0.71358  Biso   1.000  He
  He104    1.0000 0.08724  0.25536  0.68794  Biso   1.000  He
  Ne104    1.0000 0.08711  0.28837  0.69419  Biso   1.000  Ne
  Ne105    1.0000 0.08987  0.24194  0.24026  Biso   1.000  Ne
  He105    1.0000 0.07234  0.23681  0.26783  Biso   1.000  He
  He106    1.0000 0.07959  0.25780  0.29379  Biso   1.000  He
  Ne106    1.0000 0.06081  0.25614  0.32185  Biso   1.000  Ne
  Ne107    1.0000 0.96876  0.54782  0.58532  Biso   1.000  Ne
  He107    1.0000 0.93643  0.55157  0.57720  Biso   1.000  He
  He108    1.0000 0.93384  0.57068  0.55012  Biso   1.000  He
  Ne108    1.0000 0.90299  0.58112  0.54329  Biso   1.000  Ne
  Ne109    1.0000 0.72520  0.56170  0.85729  Biso   1.000  Ne
  He109    1.0000 0.69362  0.57806  0.86266  Biso   1.000  He
  He110    1.0000 0.69159  0.59045  0.89326  Biso   1.000  He
  Ne110    1.0000 0.66302  0.60115  0.89984  Biso   1.000  Ne
  Ne111    1.0000 0.58538  0.64212  0.80983  Biso   1.000  Ne
  He111    1.0000 0.57498  0.61384  0.82135  Biso   1.000  He
  He112    1.0000 0.56342  0.61310  0.85108  Biso   1.000  He
  Ne112    1.0000 0.55559  0.58421  0.86106  Biso   1.000  Ne
  Ne113    1.0000 0.23180  0.15432  0.44933  Biso   1.000  Ne
  He113    1.0000 0.22418  0.12498  0.45502  Biso   1.000  He
  He114    1.0000 0.24962  0.10221  0.45576  Biso   1.000  He
  Ne114    1.0000 0.24177  0.07321  0.46878  Biso   1.000  Ne
  Ne115    1.0000 0.57255  0.27085  0.59478  Biso   1.000  Ne
  He115    1.0000 0.58975  0.24204  0.58980  Biso   1.000  He
  He116    1.0000 0.59520  0.22250  0.61529  Biso   1.000  He
  Ne116    1.0000 0.60504  0.19362  0.60562  Biso   1.000  Ne
  Ne117    1.0000 0.63491  0.43265  0.18375  Biso   1.000  Ne
  He117    1.0000 0.61796  0.42659  0.21272  Biso   1.000  He
  He118    1.0000 0.63187  0.43811  0.24112  Biso   1.000  He
  Ne118    1.0000 0.61253  0.43297  0.26845  Biso   1.000  Ne
  Ne119    1.0000 0.63069  0.66412  0.06878  Biso   1.000  Ne
  He119    1.0000 0.60472  0.65426  0.08357  Biso   1.000  He
  He120    1.0000 0.59335  0.67249  0.11039  Biso   1.000  He
  Ne120    1.0000 0.60837  0.66244  0.13909  Biso   1.000  Ne
  Ne121    1.0000 0.11391  0.84569  0.18839  Biso   1.000  Ne
  He121    1.0000 0.10940  0.87741  0.20018  Biso   1.000  He
  He122    1.0000 0.08262  0.89204  0.19166  Biso   1.000  He
  Ne122    1.0000 0.08306  0.92274  0.19824  Biso   1.000  Ne
  Ne123    1.0000 0.04384  0.07892  0.96616  Biso   1.000  Ne
  He123    1.0000 0.04447  0.05296  0.94823  Biso   1.000  He
  He124    1.0000 0.02733  0.05503  0.92006  Biso   1.000  He
  Ne124    1.0000 0.99533  0.04525  0.92751  Biso   1.000  Ne
  Ne125    1.0000 0.59610  0.33063  0.07497  Biso   1.000  Ne
  He125    1.0000 0.60976  0.31960  0.10171  Biso   1.000  He
  He126    1.0000 0.60428  0.34305  0.12757  Biso   1.000  He
  Ne126    1.0000 0.63191  0.35365  0.13904  Biso   1.000  Ne
  Ne127    1.0000 0.42683  0.58006  0.90106  Biso   1.000  Ne
  He127    1.0000 0.40632  0.59081  0.92417  Biso   1.000  He
  He128    1.0000 0.37814  0.60615  0.91350  Biso   1.000  He
  Ne128    1.0000 0.34969  0.59357  0.92295  Biso   1.000  Ne
  Ne129    1.0000 0.42325  0.20675  0.26548  Biso   1.000  Ne
  He129    1.0000 0.42576  0.21153  0.23296  Biso   1.000  He
  He130    1.0000 0.41994  0.24482  0.22302  Biso   1.000  He
  Ne130    1.0000 0.43687  0.25579  0.19512  Biso   1.000  Ne
  Ne131    1.0000 0.44111  0.25272  0.65215  Biso   1.000  Ne
  He131    1.0000 0.43635  0.22625  0.63627  Biso   1.000  He
  He132    1.0000 0.42763  0.23230  0.60486  Biso   1.000  He
  Ne132    1.0000 0.42486  0.20292  0.58721  Biso   1.000  Ne
  Ne133    1.0000 0.06914  0.15868  0.80358  Biso   1.000  Ne
  He133    1.0000 0.07621  0.18557  0.82387  Biso   1.000  He
  He134    1.0000 0.05911  0.21363  0.81877  Biso   1.000  He
  Ne134    1.0000 0.06337  0.23516  0.84409  Biso   1.000  Ne
  Ne135    1.0000 0.13442  0.76776  0.35260  Biso   1.000  Ne
  He135    1.0000 0.11373  0.74509  0.36329  Biso   1.000  He
  He136    1.0000 0.11575  0.73443  0.39451  Biso   1.000  He
  Ne136    1.0000 0.09514  0.70726  0.39766  Biso   1.000  Ne
  Ne137    1.0000 0.59045  0.80645  0.39944  Biso   1.000  Ne
  He137    1.0000 0.61693  0.82512  0.39137  Biso   1.000  He
  He138    1.0000 0.64469  0.80652  0.39196  Biso   1.000  He
  Ne138    1.0000 0.66943  0.82458  0.38204  Biso   1.000  Ne
  Ne139    1.0000 0.59340  0.65624  0.62101  Biso   1.000  Ne
  He139    1.0000 0.59759  0.64192  0.65291  Biso   1.000  He
  He140    1.0000 0.58405  0.66428  0.67732  Biso   1.000  He
  Ne140    1.0000 0.58912  0.65701  0.71011  Biso   1.000  Ne
  Ne141    1.0000 0.47904  0.79168  0.00869  Biso   1.000  Ne
  He141    1.0000 0.51366  0.78997  0.00374  Biso   1.000  He
  He142    1.0000 0.52200  0.79260  0.97123  Biso   1.000  He
  Ne142    1.0000 0.55497  0.78745  0.96444  Biso   1.000  Ne
  Ne143    1.0000 0.43433  0.61130  0.05946  Biso   1.000  Ne
  He143    1.0000 0.44479  0.64357  0.06017  Biso   1.000  He
  He144    1.0000 0.42128  0.66397  0.07275  Biso   1.000  He
  Ne144    1.0000 0.43084  0.69358  0.07543  Biso   1.000  Ne
  Ne145    1.0000 0.76844  0.09309  0.59319  Biso   1.000  Ne
  He145    1.0000 0.73375  0.09924  0.59065  Biso   1.000  He
  He146    1.0000 0.72028  0.09772  0.55971  Biso   1.000  He
  Ne146    1.0000 0.68578  0.10701  0.56081  Biso   1.000  Ne
  Ne147    1.0000 0.41912  0.62209  0.22682  Biso   1.000  Ne
  He147    1.0000 0.43335  0.61799  0.19557  Biso   1.000  He
  He148    1.0000 0.41869  0.59772  0.17493  Biso   1.000  He
  Ne148    1.0000 0.43490  0.58907  0.14722  Biso   1.000  Ne
  Ne149    1.0000 0.57527  0.06938  0.48715  Biso   1.000  Ne
  He149    1.0000 0.56547  0.09006  0.46183  Biso   1.000  He
  He150    1.0000 0.59074  0.09602  0.44162  Biso   1.000  He
  Ne150    1.0000 0.58062  0.11585  0.41407  Biso   1.000  Ne
  Ne151    1.0000 0.90401  0.61782  0.62214  Biso   1.000  Ne
  He151    1.0000 0.89960  0.65095  0.62594  Biso   1.000  He
  He152    1.0000 0.91211  0.67138  0.60144  Biso   1.000  He
  Ne152    1.0000 0.91004  0.70437  0.61048  Biso   1.000  Ne
  Ne153    1.0000 0.38442  0.57244  0.83082  Biso   1.000  Ne
  He153    1.0000 0.36035  0.58559  0.80973  Biso   1.000  He
  He154    1.0000 0.34330  0.61402  0.82115  Biso   1.000  He
  Ne154    1.0000 0.33031  0.63385  0.79619  Biso   1.000  Ne
  Ne155    1.0000 0.10774  0.79115  0.92019  Biso   1.000  Ne
  He155    1.0000 0.09633  0.80765  0.89286  Biso   1.000  He
  He156    1.0000 0.10823  0.83699  0.88840  Biso   1.000  He
  Ne156    1.0000 0.09309  0.85747  0.86603  Biso   1.000  Ne
  Ne157    1.0000 0.55084  0.99291  0.55579  Biso   1.000  Ne
  He157    1.0000 0.56333  0.96155  0.54872  Biso   1.000  He
  He158    1.0000 0.59603  0.95579  0.55423  Biso   1.000  He
  Ne158    1.0000 0.60637  0.92451  0.54526  Biso   1.000  Ne
  Ne159    1.0000 0.44768  0.10905  0.70457  Biso   1.000  Ne
  He159    1.0000 0.42017  0.12793  0.71035  Biso   1.000  He
  He160    1.0000 0.42697  0.15838  0.71936  Biso   1.000  He
  Ne160    1.0000 0.40177  0.18153  0.71508  Biso   1.000  Ne
  Ne161    1.0000 0.16384  0.41479  0.37479  Biso   1.000  Ne
  He161    1.0000 0.19095  0.41751  0.39169  Biso   1.000  He
  He162    1.0000 0.19252  0.41661  0.42428  Biso   1.000  He
  Ne162    1.0000 0.22430  0.41795  0.43677  Biso   1.000  Ne
  Ne163    1.0000 0.09371  0.78239  0.57388  Biso   1.000  Ne
  He163    1.0000 0.12121  0.76769  0.56343  Biso   1.000  He
  He164    1.0000 0.14176  0.75748  0.58719  Biso   1.000  He
  Ne164    1.0000 0.16846  0.74828  0.57515  Biso   1.000  Ne
  Ne165    1.0000 0.21065  0.63679  0.40595  Biso   1.000  Ne
  He165    1.0000 0.17677  0.62672  0.40432  Biso   1.000  He
  He166    1.0000 0.15812  0.64630  0.42376  Biso   1.000  He
  Ne166    1.0000 0.12805  0.63782  0.42904  Biso   1.000  Ne
  Ne167    1.0000 0.60763  0.67586  0.91197  Biso   1.000  Ne
  He167    1.0000 0.60772  0.68446  0.88095  Biso   1.000  He
  He168    1.0000 0.57867  0.69697  0.86912  Biso   1.000  He
  Ne168    1.0000 0.58292  0.71940  0.84168  Biso   1.000  Ne
  Ne169    1.0000 0.32438  0.38084  0.24324  Biso   1.000  Ne
  He169    1.0000 0.32017  0.39373  0.21187  Biso   1.000  He
  He170    1.0000 0.28652  0.39517  0.20446  Biso   1.000  He
  Ne170    1.0000 0.27999  0.40404  0.17169  Biso   1.000  Ne
  Ne171    1.0000 0.69383  0.57979  0.12949  Biso   1.000  Ne
  He171    1.0000 0.70282  0.59230  0.10015  Biso   1.000  He
  He172    1.0000 0.70630  0.57071  0.07492  Biso   1.000  He
  Ne172    1.0000 0.71608  0.58354  0.04662  Biso   1.000  Ne
  Ne173    1.0000 0.90935  0.43868  0.32906  Biso   1.000  Ne
  He173    1.0000 0.91635  0.42328  0.30442  Biso   1.000  He
  He174    1.0000 0.89725  0.39690  0.29581  Biso   1.000  He
  Ne174    1.0000 0.90829  0.38217  0.26819  Biso   1.000  Ne
  Ne175    1.0000 0.12840  0.28147  0.40605  Biso   1.000  Ne
  He175    1.0000 0.16041  0.28641  0.40700  Biso   1.000  He
  He176    1.0000 0.17426  0.29548  0.37685  Biso   1.000  He
  Ne176    1.0000 0.20699  0.30208  0.37975  Biso   1.000  Ne
  Ne177    1.0000 0.44013  0.10385  0.60250  Biso   1.000  Ne
  He177    1.0000 0.41275  0.09173  0.62260  Biso   1.000  He
  He178    1.0000 0.39328  0.11681  0.62972  Biso   1.000  He
  Ne178    1.0000 0.37006  0.10946  0.64895  Biso   1.000  Ne
  Ne179    1.0000 0.07309  0.57880  0.49644  Biso   1.000  Ne
  He179    1.0000 0.06947  0.56775  0.46564  Biso   1.000  He
  He180    1.0000 0.09676  0.56317  0.44691  Biso   1.000  He
  Ne180    1.0000 0.08899  0.55880  0.41263  Biso   1.000  Ne
  Ne181    1.0000 0.71255  0.37421  0.87563  Biso   1.000  Ne
  He181    1.0000 0.73725  0.38972  0.86176  Biso   1.000  He
  He182    1.0000 0.75120  0.41123  0.88224  Biso   1.000  He
  Ne182    1.0000 0.77722  0.42642  0.86714  Biso   1.000  Ne
  Ne183    1.0000 0.15941  0.28351  0.07395  Biso   1.000  Ne
  He183    1.0000 0.18317  0.28184  0.09832  Biso   1.000  He
  He184    1.0000 0.18249  0.25277  0.11198  Biso   1.000  He
  Ne184    1.0000 0.20418  0.24615  0.13695  Biso   1.000  Ne
  Ne185    1.0000 0.13009  0.12205  0.91379  Biso   1.000  Ne
  He185    1.0000 0.12810  0.15122  0.93089  Biso   1.000  He
  He186    1.0000 0.13807  0.17707  0.91526  Biso   1.000  He
  Ne186    1.0000 0.13386  0.20151  0.93727  Biso   1.000  Ne
  Ne187    1.0000 0.45338  0.50269  0.92837  Biso   1.000  Ne
  He187    1.0000 0.47965  0.51203  0.94847  Biso   1.000  He
  He188    1.0000 0.47514  0.51767  0.98090  Biso   1.000  He
  Ne188    1.0000 0.50272  0.51879  0.00095  Biso   1.000  Ne
  Ne189    1.0000 0.95081  0.30059  0.06300  Biso   1.000  Ne
  He189    1.0000 0.93251  0.29264  0.08723  Biso   1.000  He
  He190    1.0000 0.91646  0.26281  0.08063  Biso   1.000  He
  Ne190    1.0000 0.89178  0.25433  0.10064  Biso   1.000  Ne
  Ne191    1.0000 0.96136  0.90687  0.96112  Biso   1.000  Ne
  He191    1.0000 0.96021  0.93270  0.94143  Biso   1.000  He
  He192    1.0000 0.97381  0.92919  0.91243  Biso   1.000  He
  Ne192    1.0000 0.98071  0.95603  0.89298  Biso   1.000  Ne
  Ne193    1.0000 0.38268  0.92041  0.70708  Biso   1.000  Ne
  He193    1.0000 0.40019  0.91801  0.67832  Biso   1.000  He
  He194    1.0000 0.43308  0.91310  0.68345  Biso   1.000  He
  Ne194    1.0000 0.44716  0.91259  0.65591  Biso   1.000  Ne
  Ne195    1.0000 0.27385  0.91958  0.67585  Biso   1.000  Ne
  He195    1.0000 0.28915  0.89017  0.67847  Biso   1.000  He
  He196    1.0000 0.31541  0.88566  0.65805  Biso   1.000  He
  Ne196    1.0000 0.33284  0.85781  0.66236  Biso   1.000  Ne
  Ne197    1.0000 0.61272  0.78644  0.55463  Biso   1.000  Ne
  He197    1.0000 0.59983  0.81225  0.57419  Biso   1.000  He
  He198    1.0000 0.60433  0.84405  0.56900  Biso   1.000  He
  Ne198    1.0000 0.59493  0.86402  0.59468  Biso   1.000  Ne
  Ne199    1.0000 0.67731  0.84484  0.62673  Biso   1.000  Ne
  He199    1.0000 0.69212  0.85372  0.59854  Biso   1.000  He
  He200    1.0000 0.68067  0.88121  0.58564  Biso   1.000  He
  Ne200    1.0000 0.69814  0.89221  0.55895  Biso   1.000  Ne
  Ne201    1.0000 0.58015  0.44294  0.81210  Biso   1.000  Ne
  He201    1.0000 0.59633  0.42504  0.79118  Biso   1.000  He
  He202    1.0000 0.57859  0.40924  0.76926  Biso   1.000  He
  Ne202    1.0000 0.59648  0.39045  0.74740  Biso   1.000  Ne
  Ne203    1.0000 0.05269  0.56343  0.58809  Biso   1.000  Ne
  He203    1.0000 0.08008  0.55896  0.60048  Biso   1.000  He
  He204    1.0000 0.10550  0.57906  0.58900  Biso   1.000  He
  Ne204    1.0000 0.13557  0.57461  0.60046  Biso   1.000  Ne
  Ne205    1.0000 0.10210  0.15304  0.15508  Biso   1.000  Ne
  He205    1.0000 0.10509  0.18169  0.13454  Biso   1.000  He
  He206    1.0000 0.08987  0.18221  0.10618  Biso   1.000  He
  Ne206    1.0000 0.09284  0.20778  0.08697  Biso   1.000  Ne
  Ne207    1.0000 0.42803  0.44570  0.08796  Biso   1.000  Ne
  He207    1.0000 0.43403  0.44866  0.05614  Biso   1.000  He
  He208    1.0000 0.45043  0.42384  0.04231  Biso   1.000  He
  Ne208    1.0000 0.45489  0.42617  0.00878  Biso   1.000  Ne
  Ne209    1.0000 0.07042  0.40976  0.59154  Biso   1.000  Ne
  He209    1.0000 0.10196  0.41361  0.59804  Biso   1.000  He
  He210    1.0000 0.12423  0.40213  0.57812  Biso   1.000  He
  Ne210    1.0000 0.15225  0.41413  0.58291  Biso   1.000  Ne
  Ne211    1.0000 0.82821  0.32707  0.58503  Biso   1.000  Ne
  He211    1.0000 0.84246  0.35462  0.57146  Biso   1.000  He
  He212    1.0000 0.82938  0.38373  0.58121  Biso   1.000  He
  Ne212    1.0000 0.84608  0.41040  0.56938  Biso   1.000  Ne
  Ne213    1.0000 0.30452  0.43089  0.85491  Biso   1.000  Ne
  He213    1.0000 0.33344  0.41835  0.86841  Biso   1.000  He
  He214    1.0000 0.34527  0.43374  0.89560  Biso   1.000  He
  Ne214    1.0000 0.37382  0.42159  0.90961  Biso   1.000  Ne
  Ne215    1.0000 0.94584  0.09921  0.06569  Biso   1.000  Ne
  He215    1.0000 0.94443  0.08065  0.03934  Biso   1.000  He
  He216    1.0000 0.96071  0.05140  0.04169  Biso   1.000  He
  Ne216    1.0000 0.95798  0.03367  0.01116  Biso   1.000  Ne
  Ne217    1.0000 0.85018  0.08252  0.07414  Biso   1.000  Ne
  He217    1.0000 0.84991  0.07810  0.11036  Biso   1.000  He
  He218    1.0000 0.87950  0.08783  0.12237  Biso   1.000  He
  Ne218    1.0000 0.87702  0.08431  0.15554  Biso   1.000  Ne
  Ne219    1.0000 0.45145  0.41907  0.21355  Biso   1.000  Ne
  He219    1.0000 0.43818  0.39492  0.19444  Biso   1.000  He
  He220    1.0000 0.44317  0.40335  0.16085  Biso   1.000  He
  Ne220    1.0000 0.42658  0.38500  0.13744  Biso   1.000  Ne
  Ne221    1.0000 0.43251  0.23068  0.06636  Biso   1.000  Ne
  He221    1.0000 0.42572  0.26279  0.07094  Biso   1.000  He
  He222    1.0000 0.42224  0.27868  0.10191  Biso   1.000  He
  Ne222    1.0000 0.41709  0.31367  0.09520  Biso   1.000  Ne
  Ne223    1.0000 0.68216  0.92294  0.69368  Biso   1.000  Ne
  He223    1.0000 0.65130  0.91726  0.68360  Biso   1.000  He
  He224    1.0000 0.62796  0.92990  0.70180  Biso   1.000  He
  Ne224    1.0000 0.59782  0.92759  0.69022  Biso   1.000  Ne
  Ne225    1.0000 0.08705  0.56550  0.73323  Biso   1.000  Ne
  He225    1.0000 0.10536  0.58549  0.71821  Biso   1.000  He
  He226    1.0000 0.11765  0.57730  0.68905  Biso   1.000  He
  Ne226    1.0000 0.14131  0.59885  0.67809  Biso   1.000  Ne
  Ne227    1.0000 0.39454  0.30942  0.85625  Biso   1.000  Ne
  He227    1.0000 0.41222  0.33516  0.84260  Biso   1.000  He
  He228    1.0000 0.39772  0.36517  0.83880  Biso   1.000  He
  Ne228    1.0000 0.41583  0.38542  0.82151  Biso   1.000  Ne
  Ne229    1.0000 0.19250  0.42979  0.01252  Biso   1.000  Ne
  He229    1.0000 0.17895  0.40382  0.02864  Biso   1.000  He
  He230    1.0000 0.19403  0.37482  0.02111  Biso   1.000  He
  Ne230    1.0000 0.17719  0.34874  0.03223  Biso   1.000  Ne
  Ne231    1.0000 0.17776  0.74947  0.93629  Biso   1.000  Ne
  He231    1.0000 0.18457  0.76928  0.90990  Biso   1.000  He
  He232    1.0000 0.20301  0.79657  0.91879  Biso   1.000  He
  Ne232    1.0000 0.21167  0.81357  0.89249  Biso   1.000  Ne
  Ne233    1.0000 0.04878  0.05622  0.07631  Biso   1.000  Ne
  He233    1.0000 0.08049  0.06423  0.07085  Biso   1.000  He
  He234    1.0000 0.08965  0.09477  0.08209  Biso   1.000  He
  Ne234    1.0000 0.12249  0.10111  0.07945  Biso   1.000  Ne
  Ne235    1.0000 0.67941  0.41073  0.07408  Biso   1.000  Ne
  He235    1.0000 0.65340  0.40949  0.09950  Biso   1.000  He
  He236    1.0000 0.62487  0.41876  0.08962  Biso   1.000  He
  Ne236    1.0000 0.60238  0.42381  0.11104  Biso   1.000  Ne
  Ne237    1.0000 0.32060  0.30492  0.12736  Biso   1.000  Ne
  He237    1.0000 0.32800  0.27664  0.11493  Biso   1.000  He
  He238    1.0000 0.30471  0.25176  0.11354  Biso   1.000  He
  Ne238    1.0000 0.31452  0.22606  0.09835  Biso   1.000  Ne
  Ne239    1.0000 0.08569  0.75487  0.18806  Biso   1.000  Ne
  He239    1.0000 0.07723  0.72451  0.20113  Biso   1.000  He
  He240    1.0000 0.06872  0.70146  0.17857  Biso   1.000  He
  Ne240    1.0000 0.05707  0.67339  0.19607  Biso   1.000  Ne
  Ne241    1.0000 0.11186  0.89274  0.75649  Biso   1.000  Ne
  He241    1.0000 0.13290  0.91156  0.77233  Biso   1.000  He
  He242    1.0000 0.15942  0.89336  0.78666  Biso   1.000  He
  Ne242    1.0000 0.18389  0.91033  0.80122  Biso   1.000  Ne
  Ne243    1.0000 0.08854  0.67802  0.65503  Biso   1.000  Ne
  He243    1.0000 0.08149  0.66214  0.62567  Biso   1.000  He
  He244    1.0000 0.09312  0.67702  0.59890  Biso   1.000  He
  Ne244    1.0000 0.08274  0.66041  0.57132  Biso   1.000  Ne
  Ne245    1.0000 0.34257  0.68180  0.91174  Biso   1.000  Ne
  He245    1.0000 0.37093  0.68767  0.91628  Biso   1.000  He
  He246    1.0000 0.38845  0.69661  0.89060  Biso   1.000  He
  Ne246    1.0000 0.42187  0.70462  0.89449  Biso   1.000  Ne
  Ne247    1.0000 0.77352  0.59550  0.38276  Biso   1.000  Ne
  He247    1.0000 0.80496  0.58902  0.39848  Biso   1.000  He
  He248    1.0000 0.82991  0.58304  0.37825  Biso   1.000  He
  Ne248    1.0000 0.86156  0.57722  0.39305  Biso   1.000  Ne
  Ne249    1.0000 0.92873  0.06331  0.85637  Biso   1.000  Ne
  He249    1.0000 0.91263  0.07829  0.83160  Biso   1.000  He
  He250    1.0000 0.88125  0.07271  0.83172  Biso   1.000  He
  Ne250    1.0000 0.86593  0.08356  0.80345  Biso   1.000  Ne
  Ne251    1.0000 0.57606  0.58453  0.03622  Biso   1.000  Ne
  He251    1.0000 0.59988  0.58231  0.06043  Biso   1.000  He
  He252    1.0000 0.58675  0.57661  0.09266  Biso   1.000  He
  Ne252    1.0000 0.60998  0.57193  0.11608  Biso   1.000  Ne
  Ne253    1.0000 0.07118  0.88639  0.11607  Biso   1.000  Ne
  He253    1.0000 0.09268  0.90937  0.10771  Biso   1.000  He
  He254    1.0000 0.10354  0.91048  0.07727  Biso   1.000  He
  Ne254    1.0000 0.12688  0.93497  0.07363  Biso   1.000  Ne
  Ne255    1.0000 0.50856  0.99202  0.48118  Biso   1.000  Ne
  He255    1.0000 0.52977  0.99367  0.45456  Biso   1.000  He
  He256    1.0000 0.51451  0.98849  0.42489  Biso   1.000  He
  Ne256    1.0000 0.53460  0.98394  0.39908  Biso   1.000  Ne
  Ne257    1.0000 0.42372  0.72840  0.73319  Biso   1.000  Ne
  He257    1.0000 0.40283  0.71674  0.74947  Biso   1.000  He
  He258    1.0000 0.41327  0.70752  0.78102  Biso   1.000  He
  Ne258    1.0000 0.38814  0.70158  0.80254  Biso   1.000  Ne
  Ne259    1.0000 0.88501  0.17850  0.18217  Biso   1.000  Ne
  He259    1.0000 0.88218  0.17319  0.14940  Biso   1.000  He
  He260    1.0000 0.90876  0.16818  0.13105  Biso   1.000  He
  Ne260    1.0000 0.90114  0.16834  0.10051  Biso   1.000  Ne
