data_image0
_cell_length_a       47.4836
_cell_length_b       46.6664
_cell_length_c       46.4796
_cell_angle_alpha    90
_cell_angle_beta     90
_cell_angle_gamma    90

_symmetry_space_group_name_H-M    "P 1"
_symmetry_int_tables_number       1

loop_
  _symmetry_equiv_pos_as_xyz
  'x, y, z'

loop_
  _atom_site_label
  _atom_site_occupancy
  _atom_site_fract_x
  _atom_site_fract_y
  _atom_site_fract_z
  _atom_site_thermal_displace_type
  _atom_site_B_iso_or_equiv
  _atom_site_type_symbol
  Ne1      1.0000 0.57477  0.71215  0.08288  Biso   1.000  Ne
  He1      1.0000 0.58737  0.68155  0.09002  Biso   1.000  He
  He2      1.0000 0.62042  0.68127  0.08849  Biso   1.000  He
  Ne2      1.0000 0.63512  0.65220  0.09724  Biso   1.000  Ne
  Ne3      1.0000 0.95391  0.45893  0.55812  Biso   1.000  Ne
  He3      1.0000 0.92940  0.44400  0.57575  Biso   1.000  He
  He4      1.0000 0.93730  0.42465  0.60044  Biso   1.000  He
  Ne4      1.0000 0.91026  0.41282  0.61850  Biso   1.000  Ne
  Ne5      1.0000 0.59557  0.09406  0.34939  Biso   1.000  Ne
  He5      1.0000 0.62663  0.09238  0.36363  Biso   1.000  He
  He6      1.0000 0.64308  0.06332  0.36439  Biso   1.000  He
  Ne6      1.0000 0.67342  0.06432  0.38007  Biso   1.000  Ne
  Ne7      1.0000 0.83469  0.31428  0.43460  Biso   1.000  Ne
  He7      1.0000 0.86512  0.30909  0.42041  Biso   1.000  He
  He8      1.0000 0.87661  0.33544  0.40531  Biso   1.000  He
  Ne8      1.0000 0.90656  0.32853  0.39376  Biso   1.000  Ne
  Ne9      1.0000 0.46532  0.06423  0.57171  Biso   1.000  Ne
  He9      1.0000 0.46403  0.03370  0.58196  Biso   1.000  He
  He10     1.0000 0.43987  0.01868  0.57357  Biso   1.000  He
  Ne10     1.0000 0.44248  0.98924  0.58520  Biso   1.000  Ne
  Ne11     1.0000 0.36923  0.70247  0.94509  Biso   1.000  Ne
  He11     1.0000 0.39520  0.68115  0.94996  Biso   1.000  He
  He12     1.0000 0.38510  0.65000  0.95507  Biso   1.000  He
  Ne12     1.0000 0.41038  0.62853  0.95460  Biso   1.000  Ne
  Ne13     1.0000 0.87535  0.41390  0.40692  Biso   1.000  Ne
  He13     1.0000 0.87289  0.40553  0.37396  Biso   1.000  He
  He14     1.0000 0.89690  0.41954  0.35409  Biso   1.000  He
  Ne14     1.0000 0.89979  0.41040  0.32208  Biso   1.000  Ne
  Ne15     1.0000 0.68417  0.57351  0.09109  Biso   1.000  Ne
  He15     1.0000 0.69398  0.59712  0.11526  Biso   1.000  He
  He16     1.0000 0.70222  0.58891  0.14604  Biso   1.000  He
  Ne16     1.0000 0.70399  0.61430  0.16717  Biso   1.000  Ne
  Ne17     1.0000 0.89762  0.06934  0.84883  Biso   1.000  Ne
  He17     1.0000 0.90968  0.06888  0.81480  Biso   1.000  He
  He18     1.0000 0.89724  0.04269  0.79680  Biso   1.000  He
  Ne18     1.0000 0.91468  0.03592  0.77137  Biso   1.000  Ne
  Ne19     1.0000 0.63552  0.09153  0.59274  Biso   1.000  Ne
  He19     1.0000 0.62905  0.12448  0.58887  Biso   1.000  He
  He20     1.0000 0.59843  0.13279  0.59389  Biso   1.000  He
  Ne20     1.0000 0.59068  0.16514  0.59022  Biso   1.000  Ne
  Ne21     1.0000 0.40744  0.91310  0.68233  Biso   1.000  Ne
  He21     1.0000 0.40197  0.89305  0.65560  Biso   1.000  He
  He22     1.0000 0.41501  0.90047  0.62710  Biso   1.000  He
  Ne22     1.0000 0.40946  0.87908  0.60577  Biso   1.000  Ne
  Ne23     1.0000 0.40315  0.40390  0.94804  Biso   1.000  Ne
  He23     1.0000 0.40911  0.38430  0.92087  Biso   1.000  He
  He24     1.0000 0.41431  0.39757  0.89226  Biso   1.000  He
  Ne24     1.0000 0.41875  0.37429  0.86802  Biso   1.000  Ne
  Ne25     1.0000 0.88141  0.06453  0.07295  Biso   1.000  Ne
  He25     1.0000 0.87635  0.09195  0.08908  Biso   1.000  He
  He26     1.0000 0.89989  0.10247  0.10900  Biso   1.000  He
  Ne26     1.0000 0.89753  0.13219  0.12565  Biso   1.000  Ne
  Ne27     1.0000 0.33700  0.35132  0.89676  Biso   1.000  Ne
  He27     1.0000 0.32254  0.37492  0.91250  Biso   1.000  He
  He28     1.0000 0.30588  0.39469  0.89120  Biso   1.000  He
  Ne28     1.0000 0.29428  0.42356  0.90659  Biso   1.000  Ne
  Ne29     1.0000 0.38339  0.62034  0.85663  Biso   1.000  Ne
  He29     1.0000 0.39027  0.60325  0.88358  Biso   1.000  He
  He30     1.0000 0.39279  0.56983  0.87430  Biso   1.000  He
  Ne30     1.0000 0.39567  0.54921  0.89856  Biso   1.000  Ne
  Ne31     1.0000 0.63354  0.39715  0.77175  Biso   1.000  Ne
  He31     1.0000 0.61395  0.38907  0.79756  Biso   1.000  He
  He32     1.0000 0.61261  0.41389  0.82033  Biso   1.000  He
  Ne32     1.0000 0.59364  0.40668  0.84852  Biso   1.000  Ne
  Ne33     1.0000 0.07634  0.89520  0.84984  Biso   1.000  Ne
  He33     1.0000 0.07224  0.86095  0.84786  Biso   1.000  He
  He34     1.0000 0.07381  0.84643  0.81822  Biso   1.000  He
  Ne34     1.0000 0.06595  0.81024  0.81846  Biso   1.000  Ne
  Ne35     1.0000 0.17945  0.11178  0.08676  Biso   1.000  Ne
  He35     1.0000 0.16690  0.13924  0.10065  Biso   1.000  He
  He36     1.0000 0.18323  0.16632  0.08901  Biso   1.000  He
  Ne36     1.0000 0.17105  0.19716  0.09878  Biso   1.000  Ne
  Ne37     1.0000 0.88142  0.92265  0.15964  Biso   1.000  Ne
  He37     1.0000 0.89674  0.89288  0.16182  Biso   1.000  He
  He38     1.0000 0.89194  0.87104  0.14119  Biso   1.000  He
  Ne38     1.0000 0.90870  0.84478  0.15036  Biso   1.000  Ne
  Ne39     1.0000 0.11696  0.08651  0.79323  Biso   1.000  Ne
  He39     1.0000 0.10906  0.06839  0.81969  Biso   1.000  He
  He40     1.0000 0.07753  0.06823  0.82792  Biso   1.000  He
  Ne40     1.0000 0.06857  0.05177  0.85795  Biso   1.000  Ne
  Ne41     1.0000 0.14482  0.34864  0.58052  Biso   1.000  Ne
  He41     1.0000 0.12729  0.33069  0.59931  Biso   1.000  He
  He42     1.0000 0.09203  0.33659  0.59727  Biso   1.000  He
  Ne42     1.0000 0.07368  0.31444  0.61282  Biso   1.000  Ne
  Ne43     1.0000 0.59085  0.58439  0.90503  Biso   1.000  Ne
  He43     1.0000 0.62298  0.57281  0.90485  Biso   1.000  He
  He44     1.0000 0.64365  0.59473  0.91986  Biso   1.000  He
  Ne44     1.0000 0.67406  0.58234  0.92366  Biso   1.000  Ne
  Ne45     1.0000 0.38515  0.61987  0.13792  Biso   1.000  Ne
  He45     1.0000 0.37896  0.58996  0.14696  Biso   1.000  He
  He46     1.0000 0.36558  0.58701  0.17463  Biso   1.000  He
  Ne46     1.0000 0.38585  0.58226  0.20071  Biso   1.000  Ne
  Ne47     1.0000 0.12823  0.87548  0.10683  Biso   1.000  Ne
  He47     1.0000 0.15450  0.89448  0.11352  Biso   1.000  He
  He48     1.0000 0.18207  0.89017  0.09468  Biso   1.000  He
  Ne48     1.0000 0.21015  0.90463  0.10329  Biso   1.000  Ne
  Ne49     1.0000 0.87202  0.86636  0.87829  Biso   1.000  Ne
  He49     1.0000 0.88316  0.88481  0.90258  Biso   1.000  He
  He50     1.0000 0.88552  0.87223  0.93006  Biso   1.000  He
  Ne50     1.0000 0.90634  0.89224  0.94866  Biso   1.000  Ne
  Ne51     1.0000 0.89999  0.66181  0.44080  Biso   1.000  Ne
  He51     1.0000 0.86798  0.65658  0.44954  Biso   1.000  He
  He52     1.0000 0.84885  0.67597  0.43179  Biso   1.000  He
  Ne52     1.0000 0.81706  0.67039  0.44009  Biso   1.000  Ne
  Ne53     1.0000 0.86920  0.58651  0.61736  Biso   1.000  Ne
  He53     1.0000 0.89775  0.57214  0.60882  Biso   1.000  He
  He54     1.0000 0.89875  0.53777  0.61521  Biso   1.000  He
  Ne54     1.0000 0.92788  0.52172  0.60879  Biso   1.000  Ne
  Ne55     1.0000 0.64119  0.57955  0.81453  Biso   1.000  Ne
  He55     1.0000 0.61544  0.58572  0.79592  Biso   1.000  He
  He56     1.0000 0.59397  0.60738  0.81289  Biso   1.000  He
  Ne56     1.0000 0.57240  0.61977  0.79170  Biso   1.000  Ne
  Ne57     1.0000 0.35947  0.40706  0.08035  Biso   1.000  Ne
  He57     1.0000 0.37152  0.39058  0.10487  Biso   1.000  He
  He58     1.0000 0.36051  0.40341  0.13078  Biso   1.000  He
  Ne58     1.0000 0.37230  0.38350  0.15648  Biso   1.000  Ne
  Ne59     1.0000 0.40912  0.06728  0.67818  Biso   1.000  Ne
  He59     1.0000 0.40783  0.08422  0.64984  Biso   1.000  He
  He60     1.0000 0.38860  0.06756  0.62790  Biso   1.000  He
  Ne60     1.0000 0.38724  0.07815  0.59768  Biso   1.000  Ne
  Ne61     1.0000 0.58200  0.00355  0.49775  Biso   1.000  Ne
  He61     1.0000 0.57673  0.99897  0.46428  Biso   1.000  He
  He62     1.0000 0.57554  0.02963  0.45022  Biso   1.000  He
  Ne62     1.0000 0.57017  0.02849  0.41854  Biso   1.000  Ne
  Ne63     1.0000 0.67701  0.37735  0.09255  Biso   1.000  Ne
  He63     1.0000 0.67396  0.34719  0.09968  Biso   1.000  He
  He64     1.0000 0.64646  0.33245  0.09199  Biso   1.000  He
  Ne64     1.0000 0.64792  0.30206  0.09917  Biso   1.000  Ne
  Ne65     1.0000 0.66910  0.90092  0.59432  Biso   1.000  Ne
  He65     1.0000 0.64060  0.90535  0.61533  Biso   1.000  He
  He66     1.0000 0.61186  0.91633  0.60117  Biso   1.000  He
  Ne66     1.0000 0.58698  0.92079  0.62172  Biso   1.000  Ne
  Ne67     1.0000 0.27950  0.92262  0.67226  Biso   1.000  Ne
  He67     1.0000 0.30173  0.92164  0.64843  Biso   1.000  He
  He68     1.0000 0.29163  0.92695  0.61849  Biso   1.000  He
  Ne68     1.0000 0.31612  0.91822  0.59558  Biso   1.000  Ne
  Ne69     1.0000 0.42026  0.14330  0.38950  Biso   1.000  Ne
  He69     1.0000 0.40257  0.11786  0.39126  Biso   1.000  He
  He70     1.0000 0.41274  0.09675  0.36858  Biso   1.000  He
  Ne70     1.0000 0.39189  0.06806  0.36511  Biso   1.000  Ne
  Ne71     1.0000 0.48842  0.06920  0.46820  Biso   1.000  Ne
  He71     1.0000 0.46295  0.06544  0.44584  Biso   1.000  He
  He72     1.0000 0.46520  0.03534  0.43380  Biso   1.000  He
  Ne72     1.0000 0.43972  0.02796  0.41719  Biso   1.000  Ne
  Ne73     1.0000 0.11510  0.14614  0.91575  Biso   1.000  Ne
  He73     1.0000 0.11573  0.11754  0.92649  Biso   1.000  He
  He74     1.0000 0.13533  0.09879  0.90903  Biso   1.000  He
  Ne74     1.0000 0.13383  0.06572  0.91713  Biso   1.000  Ne
  Ne75     1.0000 0.06772  0.61576  0.38941  Biso   1.000  Ne
  He75     1.0000 0.06303  0.63323  0.41847  Biso   1.000  He
  He76     1.0000 0.06514  0.66523  0.41208  Biso   1.000  He
  Ne76     1.0000 0.06460  0.68084  0.44076  Biso   1.000  Ne
  Ne77     1.0000 0.88292  0.21064  0.08939  Biso   1.000  Ne
  He77     1.0000 0.85936  0.18745  0.07722  Biso   1.000  He
  He78     1.0000 0.83071  0.18139  0.09600  Biso   1.000  He
  Ne78     1.0000 0.80855  0.15977  0.08243  Biso   1.000  Ne
  Ne79     1.0000 0.27115  0.78971  0.06759  Biso   1.000  Ne
  He79     1.0000 0.24660  0.80621  0.08489  Biso   1.000  He
  He80     1.0000 0.22871  0.78040  0.10070  Biso   1.000  He
  Ne80     1.0000 0.19772  0.78820  0.11439  Biso   1.000  Ne
