data_image0
_cell_length_a       46.7302
_cell_length_b       46.9369
_cell_length_c       46.5583
_cell_angle_alpha    90
_cell_angle_beta     90
_cell_angle_gamma    90

_symmetry_space_group_name_H-M    "P 1"
_symmetry_int_tables_number       1

loop_
  _symmetry_equiv_pos_as_xyz
  'x, y, z'

loop_
  _atom_site_label
  _atom_site_occupancy
  _atom_site_fract_x
  _atom_site_fract_y
  _atom_site_fract_z
  _atom_site_thermal_displace_type
  _atom_site_B_iso_or_equiv
  _atom_site_type_symbol
  Ne1      1.0000 0.44645  0.62498  0.09598  Biso   1.000  Ne
  He1      1.0000 0.45564  0.59607  0.10928  Biso   1.000  He
  He2      1.0000 0.43494  0.58289  0.13216  Biso   1.000  He
  Ne2      1.0000 0.44549  0.55563  0.15179  Biso   1.000  Ne
  Ne3      1.0000 0.10048  0.90393  0.14609  Biso   1.000  Ne
  He3      1.0000 0.12856  0.88905  0.13620  Biso   1.000  He
  He4      1.0000 0.12098  0.86910  0.11152  Biso   1.000  He
  Ne4      1.0000 0.14123  0.84506  0.10488  Biso   1.000  Ne
  Ne5      1.0000 0.34604  0.37783  0.95018  Biso   1.000  Ne
  He5      1.0000 0.36110  0.34774  0.95182  Biso   1.000  He
  He6      1.0000 0.34034  0.32122  0.94847  Biso   1.000  He
  Ne6      1.0000 0.35785  0.29304  0.94180  Biso   1.000  Ne
  Ne7      1.0000 0.60259  0.20464  0.15554  Biso   1.000  Ne
  He7      1.0000 0.57584  0.21296  0.13792  Biso   1.000  He
  He8      1.0000 0.55624  0.18860  0.13480  Biso   1.000  He
  Ne8      1.0000 0.52755  0.19371  0.11801  Biso   1.000  Ne
  Ne9      1.0000 0.89045  0.55585  0.42880  Biso   1.000  Ne
  He9      1.0000 0.91824  0.57419  0.41597  Biso   1.000  He
  He10     1.0000 0.90673  0.59526  0.39009  Biso   1.000  He
  Ne10     1.0000 0.93047  0.61573  0.37897  Biso   1.000  Ne
  Ne11     1.0000 0.12314  0.89203  0.81147  Biso   1.000  Ne
  He11     1.0000 0.12487  0.87566  0.83952  Biso   1.000  He
  He12     1.0000 0.10735  0.88976  0.86276  Biso   1.000  He
  Ne12     1.0000 0.10427  0.87288  0.89206  Biso   1.000  Ne
  Ne13     1.0000 0.15075  0.05788  0.17617  Biso   1.000  Ne
  He13     1.0000 0.18050  0.05190  0.16252  Biso   1.000  He
  He14     1.0000 0.17847  0.04808  0.12850  Biso   1.000  He
  Ne14     1.0000 0.20465  0.05183  0.10953  Biso   1.000  Ne
  Ne15     1.0000 0.77334  0.04575  0.59442  Biso   1.000  Ne
  He15     1.0000 0.76457  0.04045  0.62748  Biso   1.000  He
  He16     1.0000 0.78842  0.02661  0.64706  Biso   1.000  He
  Ne16     1.0000 0.78046  0.01793  0.67812  Biso   1.000  Ne
  Ne17     1.0000 0.76989  0.87562  0.90280  Biso   1.000  Ne
  He17     1.0000 0.79887  0.88399  0.91833  Biso   1.000  He
  He18     1.0000 0.82571  0.87054  0.90698  Biso   1.000  He
  Ne18     1.0000 0.85498  0.87947  0.92293  Biso   1.000  Ne
  Ne19     1.0000 0.11571  0.29883  0.58517  Biso   1.000  Ne
  He19     1.0000 0.10969  0.33116  0.58748  Biso   1.000  He
  He20     1.0000 0.09445  0.34143  0.61589  Biso   1.000  He
  Ne20     1.0000 0.08287  0.37269  0.61317  Biso   1.000  Ne
  Ne21     1.0000 0.62724  0.38109  0.16534  Biso   1.000  Ne
  He21     1.0000 0.62477  0.39100  0.13227  Biso   1.000  He
  He22     1.0000 0.61402  0.36960  0.11218  Biso   1.000  He
  Ne22     1.0000 0.60040  0.38213  0.08177  Biso   1.000  Ne
  Ne23     1.0000 0.92886  0.37335  0.67403  Biso   1.000  Ne
  He23     1.0000 0.94142  0.35582  0.65116  Biso   1.000  He
  He24     1.0000 0.95257  0.36954  0.62371  Biso   1.000  He
  Ne24     1.0000 0.95504  0.35100  0.59806  Biso   1.000  Ne
  Ne25     1.0000 0.63790  0.57600  0.09255  Biso   1.000  Ne
  He25     1.0000 0.65040  0.60461  0.09263  Biso   1.000  He
  He26     1.0000 0.62884  0.63072  0.09060  Biso   1.000  He
  Ne26     1.0000 0.62638  0.64369  0.12102  Biso   1.000  Ne
  Ne27     1.0000 0.90808  0.04107  0.21493  Biso   1.000  Ne
  He27     1.0000 0.90135  0.04925  0.18299  Biso   1.000  He
  He28     1.0000 0.90931  0.08292  0.17526  Biso   1.000  He
  Ne28     1.0000 0.90265  0.09390  0.14467  Biso   1.000  Ne
  Ne29     1.0000 0.85836  0.38763  0.39923  Biso   1.000  Ne
  He29     1.0000 0.88154  0.38943  0.37791  Biso   1.000  He
  He30     1.0000 0.90900  0.37770  0.38795  Biso   1.000  He
  Ne30     1.0000 0.93587  0.37986  0.36486  Biso   1.000  Ne
  Ne31     1.0000 0.75955  0.77449  0.60412  Biso   1.000  Ne
  He31     1.0000 0.74900  0.79983  0.58837  Biso   1.000  He
  He32     1.0000 0.71639  0.79809  0.59233  Biso   1.000  He
  Ne32     1.0000 0.70083  0.82578  0.57837  Biso   1.000  Ne
  Ne33     1.0000 0.65729  0.55734  0.90108  Biso   1.000  Ne
  He33     1.0000 0.64208  0.57838  0.92255  Biso   1.000  He
  He34     1.0000 0.61489  0.59480  0.91025  Biso   1.000  He
  Ne34     1.0000 0.60430  0.61717  0.92950  Biso   1.000  Ne
  Ne35     1.0000 0.67405  0.06035  0.38659  Biso   1.000  Ne
  He35     1.0000 0.64181  0.05984  0.38694  Biso   1.000  He
  He36     1.0000 0.62654  0.07004  0.35804  Biso   1.000  He
  Ne36     1.0000 0.59474  0.06717  0.35772  Biso   1.000  Ne
  Ne37     1.0000 0.84605  0.30194  0.58835  Biso   1.000  Ne
  He37     1.0000 0.84559  0.32439  0.61392  Biso   1.000  He
  He38     1.0000 0.84899  0.35557  0.60219  Biso   1.000  He
  Ne38     1.0000 0.84589  0.38300  0.62401  Biso   1.000  Ne
  Ne39     1.0000 0.07811  0.40460  0.42545  Biso   1.000  Ne
  He39     1.0000 0.07077  0.41837  0.45648  Biso   1.000  He
  He40     1.0000 0.05647  0.39827  0.47813  Biso   1.000  He
  Ne40     1.0000 0.05306  0.41293  0.50797  Biso   1.000  Ne
  Ne41     1.0000 0.09271  0.21944  0.38558  Biso   1.000  Ne
  He41     1.0000 0.08634  0.24789  0.40046  Biso   1.000  He
  He42     1.0000 0.08672  0.27609  0.38189  Biso   1.000  He
  Ne42     1.0000 0.08484  0.30275  0.39973  Biso   1.000  Ne
  Ne43     1.0000 0.90837  0.70210  0.16897  Biso   1.000  Ne
  He43     1.0000 0.91312  0.70992  0.13851  Biso   1.000  He
  He44     1.0000 0.94764  0.70763  0.13194  Biso   1.000  He
  Ne44     1.0000 0.95652  0.71069  0.09906  Biso   1.000  Ne
  Ne45     1.0000 0.08540  0.85070  0.67745  Biso   1.000  Ne
  He45     1.0000 0.05871  0.83813  0.69287  Biso   1.000  He
  He46     1.0000 0.03378  0.85651  0.69906  Biso   1.000  He
  Ne46     1.0000 0.00824  0.84460  0.71284  Biso   1.000  Ne
  Ne47     1.0000 0.65653  0.36799  0.92063  Biso   1.000  Ne
  He47     1.0000 0.64349  0.37557  0.89171  Biso   1.000  He
  He48     1.0000 0.66360  0.38256  0.86725  Biso   1.000  He
  Ne48     1.0000 0.64759  0.39179  0.83890  Biso   1.000  Ne
  Ne49     1.0000 0.10413  0.88911  0.29435  Biso   1.000  Ne
  He49     1.0000 0.12410  0.89691  0.26913  Biso   1.000  He
  He50     1.0000 0.11091  0.88905  0.23975  Biso   1.000  He
  Ne50     1.0000 0.13209  0.89396  0.21520  Biso   1.000  Ne
  Ne51     1.0000 0.17060  0.36942  0.43715  Biso   1.000  Ne
  He51     1.0000 0.20044  0.37368  0.42242  Biso   1.000  He
  He52     1.0000 0.22378  0.37286  0.44564  Biso   1.000  He
  Ne52     1.0000 0.25373  0.37974  0.43439  Biso   1.000  Ne
  Ne53     1.0000 0.10877  0.02312  0.06763  Biso   1.000  Ne
  He53     1.0000 0.08869  0.02799  0.09373  Biso   1.000  He
  He54     1.0000 0.08676  0.05743  0.10614  Biso   1.000  He
  Ne54     1.0000 0.07258  0.06338  0.13468  Biso   1.000  Ne
  Ne55     1.0000 0.97366  0.96681  0.10353  Biso   1.000  Ne
  He55     1.0000 0.99871  0.94897  0.08924  Biso   1.000  He
  He56     1.0000 0.99086  0.92278  0.06720  Biso   1.000  He
  Ne56     1.0000 0.02100  0.91082  0.05332  Biso   1.000  Ne
  Ne57     1.0000 0.95529  0.88643  0.88293  Biso   1.000  Ne
  He57     1.0000 0.94491  0.88755  0.91535  Biso   1.000  He
  He58     1.0000 0.96540  0.89462  0.93674  Biso   1.000  He
  Ne58     1.0000 0.95332  0.89263  0.96691  Biso   1.000  Ne
  Ne59     1.0000 0.89862  0.03972  0.87322  Biso   1.000  Ne
  He59     1.0000 0.90909  0.06323  0.85085  Biso   1.000  He
  He60     1.0000 0.92282  0.04948  0.82277  Biso   1.000  He
  Ne60     1.0000 0.90614  0.05718  0.79614  Biso   1.000  Ne
  Ne61     1.0000 0.03248  0.48780  0.43362  Biso   1.000  Ne
  He61     1.0000 0.00101  0.49674  0.44160  Biso   1.000  He
  He62     1.0000 0.98168  0.47155  0.44683  Biso   1.000  He
  Ne62     1.0000 0.95223  0.47941  0.44733  Biso   1.000  Ne
  Ne63     1.0000 0.56711  0.54409  0.03442  Biso   1.000  Ne
  He63     1.0000 0.58325  0.51997  0.01901  Biso   1.000  He
  He64     1.0000 0.59714  0.52887  0.98954  Biso   1.000  He
  Ne64     1.0000 0.61567  0.50403  0.97929  Biso   1.000  Ne
  Ne65     1.0000 0.54783  0.44479  0.03313  Biso   1.000  Ne
  He65     1.0000 0.56495  0.42367  0.01493  Biso   1.000  He
  He66     1.0000 0.57452  0.43576  0.98609  Biso   1.000  He
  Ne66     1.0000 0.59585  0.41417  0.96988  Biso   1.000  Ne
  Ne67     1.0000 0.12769  0.73954  0.92822  Biso   1.000  Ne
  He67     1.0000 0.12565  0.75392  0.89921  Biso   1.000  He
  He68     1.0000 0.12059  0.78503  0.89825  Biso   1.000  He
  Ne68     1.0000 0.11632  0.79557  0.86831  Biso   1.000  Ne
  Ne69     1.0000 0.72255  0.53673  0.13064  Biso   1.000  Ne
  He69     1.0000 0.74222  0.54466  0.15457  Biso   1.000  He
  He70     1.0000 0.73272  0.56744  0.17311  Biso   1.000  He
  Ne70     1.0000 0.75668  0.57759  0.19633  Biso   1.000  Ne
  Ne71     1.0000 0.88011  0.80650  0.10430  Biso   1.000  Ne
  He71     1.0000 0.89926  0.83349  0.09856  Biso   1.000  He
  He72     1.0000 0.88445  0.85776  0.08560  Biso   1.000  He
  Ne72     1.0000 0.90418  0.88443  0.08313  Biso   1.000  Ne
  Ne73     1.0000 0.50870  0.52459  0.10012  Biso   1.000  Ne
  He73     1.0000 0.48137  0.51567  0.08510  Biso   1.000  He
  He74     1.0000 0.47901  0.53228  0.05689  Biso   1.000  He
  Ne74     1.0000 0.45027  0.53026  0.04302  Biso   1.000  Ne
  Ne75     1.0000 0.36475  0.03527  0.44713  Biso   1.000  Ne
  He75     1.0000 0.39620  0.04058  0.43644  Biso   1.000  He
  He76     1.0000 0.39579  0.05372  0.40676  Biso   1.000  He
  Ne76     1.0000 0.42792  0.05659  0.39328  Biso   1.000  Ne
  Ne77     1.0000 0.61578  0.28596  0.87470  Biso   1.000  Ne
  He77     1.0000 0.61610  0.26327  0.89659  Biso   1.000  He
  He78     1.0000 0.62389  0.27368  0.92478  Biso   1.000  He
  Ne78     1.0000 0.61925  0.25045  0.94785  Biso   1.000  Ne
  Ne79     1.0000 0.46487  0.39766  0.02866  Biso   1.000  Ne
  He79     1.0000 0.44419  0.42374  0.01883  Biso   1.000  He
  He80     1.0000 0.45809  0.44616  0.99765  Biso   1.000  He
  Ne80     1.0000 0.44213  0.47421  0.98809  Biso   1.000  Ne
