data_image0
_cell_length_a       47.1797
_cell_length_b       46.4933
_cell_length_c       46.589
_cell_angle_alpha    90
_cell_angle_beta     90
_cell_angle_gamma    90

_symmetry_space_group_name_H-M    "P 1"
_symmetry_int_tables_number       1

loop_
  _symmetry_equiv_pos_as_xyz
  'x, y, z'

loop_
  _atom_site_label
  _atom_site_occupancy
  _atom_site_fract_x
  _atom_site_fract_y
  _atom_site_fract_z
  _atom_site_thermal_displace_type
  _atom_site_B_iso_or_equiv
  _atom_site_type_symbol
  Ne1      1.0000 0.62422  0.55353  0.14167  Biso   1.000  Ne
  He1      1.0000 0.65534  0.55266  0.15637  Biso   1.000  He
  He2      1.0000 0.67806  0.57602  0.14578  Biso   1.000  He
  Ne2      1.0000 0.71089  0.57226  0.15267  Biso   1.000  Ne
  Ne3      1.0000 0.16491  0.05031  0.22679  Biso   1.000  Ne
  He3      1.0000 0.17269  0.06077  0.19304  Biso   1.000  He
  He4      1.0000 0.19598  0.04034  0.17693  Biso   1.000  He
  Ne4      1.0000 0.20883  0.05269  0.14844  Biso   1.000  Ne
  Ne5      1.0000 0.66954  0.81048  0.45954  Biso   1.000  Ne
  He5      1.0000 0.64121  0.81011  0.47998  Biso   1.000  He
  He6      1.0000 0.61078  0.80608  0.46834  Biso   1.000  He
  Ne6      1.0000 0.58839  0.80303  0.49292  Biso   1.000  Ne
  Ne7      1.0000 0.04091  0.57132  0.47701  Biso   1.000  Ne
  He7      1.0000 0.07021  0.56039  0.46377  Biso   1.000  He
  He8      1.0000 0.08647  0.58793  0.45508  Biso   1.000  He
  Ne8      1.0000 0.11021  0.58369  0.43593  Biso   1.000  Ne
  Ne9      1.0000 0.09488  0.88723  0.11070  Biso   1.000  Ne
  He9      1.0000 0.06611  0.89137  0.12581  Biso   1.000  He
  He10     1.0000 0.06761  0.90881  0.15773  Biso   1.000  He
  Ne10     1.0000 0.07397  0.88958  0.18311  Biso   1.000  Ne
  Ne11     1.0000 0.79613  0.57525  0.41849  Biso   1.000  Ne
  He11     1.0000 0.76680  0.58508  0.42963  Biso   1.000  He
  He12     1.0000 0.76174  0.57528  0.46146  Biso   1.000  He
  Ne12     1.0000 0.73186  0.58049  0.47492  Biso   1.000  Ne
  Ne13     1.0000 0.06770  0.33032  0.71527  Biso   1.000  Ne
  He13     1.0000 0.06555  0.36150  0.72498  Biso   1.000  He
  He14     1.0000 0.07247  0.36762  0.75813  Biso   1.000  He
  Ne14     1.0000 0.04549  0.37318  0.78176  Biso   1.000  Ne
  Ne15     1.0000 0.14390  0.13263  0.15711  Biso   1.000  Ne
  He15     1.0000 0.13475  0.16128  0.14142  Biso   1.000  He
  He16     1.0000 0.11191  0.18017  0.15800  Biso   1.000  He
  Ne16     1.0000 0.10169  0.20720  0.14570  Biso   1.000  Ne
  Ne17     1.0000 0.89645  0.38594  0.59302  Biso   1.000  Ne
  He17     1.0000 0.91448  0.36189  0.60774  Biso   1.000  He
  He18     1.0000 0.89730  0.33440  0.60786  Biso   1.000  He
  Ne18     1.0000 0.91163  0.30995  0.62513  Biso   1.000  Ne
  Ne19     1.0000 0.57585  0.87236  0.71113  Biso   1.000  Ne
  He19     1.0000 0.57037  0.89282  0.68590  Biso   1.000  He
  He20     1.0000 0.57998  0.88513  0.65564  Biso   1.000  He
  Ne20     1.0000 0.56677  0.90528  0.63564  Biso   1.000  Ne
  Ne21     1.0000 0.82955  0.89454  0.22987  Biso   1.000  Ne
  He21     1.0000 0.85308  0.89676  0.25237  Biso   1.000  He
  He22     1.0000 0.88160  0.89113  0.23797  Biso   1.000  He
  Ne22     1.0000 0.90783  0.88873  0.26016  Biso   1.000  Ne
  Ne23     1.0000 0.58963  0.70467  0.11555  Biso   1.000  Ne
  He23     1.0000 0.57578  0.67763  0.12866  Biso   1.000  He
  He24     1.0000 0.59476  0.65149  0.13036  Biso   1.000  He
  Ne24     1.0000 0.57734  0.62273  0.14065  Biso   1.000  Ne
  Ne25     1.0000 0.06369  0.83170  0.95478  Biso   1.000  Ne
  He25     1.0000 0.06595  0.86066  0.96973  Biso   1.000  He
  He26     1.0000 0.05625  0.88452  0.95149  Biso   1.000  He
  Ne26     1.0000 0.06216  0.91409  0.96476  Biso   1.000  Ne
  Ne27     1.0000 0.21725  0.13097  0.93984  Biso   1.000  Ne
  He27     1.0000 0.19972  0.10208  0.95017  Biso   1.000  He
  He28     1.0000 0.21875  0.07820  0.96199  Biso   1.000  He
  Ne28     1.0000 0.20553  0.05282  0.97301  Biso   1.000  Ne
  Ne29     1.0000 0.46038  0.53214  0.75026  Biso   1.000  Ne
  He29     1.0000 0.47259  0.50024  0.74861  Biso   1.000  He
  He30     1.0000 0.45349  0.47934  0.73222  Biso   1.000  He
  Ne30     1.0000 0.46593  0.44492  0.73407  Biso   1.000  Ne
  Ne31     1.0000 0.57616  0.27005  0.14037  Biso   1.000  Ne
  He31     1.0000 0.59201  0.29744  0.12848  Biso   1.000  He
  He32     1.0000 0.57483  0.32537  0.13241  Biso   1.000  He
  Ne32     1.0000 0.59286  0.35257  0.12485  Biso   1.000  Ne
  Ne33     1.0000 0.21261  0.08334  0.82784  Biso   1.000  Ne
  He33     1.0000 0.18585  0.07998  0.80701  Biso   1.000  He
  He34     1.0000 0.15874  0.06786  0.82362  Biso   1.000  He
  Ne34     1.0000 0.13372  0.06508  0.80219  Biso   1.000  Ne
  Ne35     1.0000 0.41018  0.39297  0.87181  Biso   1.000  Ne
  He35     1.0000 0.38068  0.38139  0.86113  Biso   1.000  He
  He36     1.0000 0.35422  0.38526  0.88508  Biso   1.000  He
  Ne36     1.0000 0.32673  0.37886  0.87281  Biso   1.000  Ne
  Ne37     1.0000 0.30509  0.86729  0.40243  Biso   1.000  Ne
  He37     1.0000 0.32789  0.84385  0.40117  Biso   1.000  He
  He38     1.0000 0.33335  0.83061  0.43006  Biso   1.000  He
  Ne38     1.0000 0.35807  0.80954  0.43245  Biso   1.000  Ne
  Ne39     1.0000 0.81203  0.86710  0.12738  Biso   1.000  Ne
  He39     1.0000 0.79243  0.88674  0.10968  Biso   1.000  He
  He40     1.0000 0.77249  0.90820  0.12773  Biso   1.000  He
  Ne40     1.0000 0.74591  0.92363  0.11156  Biso   1.000  Ne
  Ne41     1.0000 0.29585  0.04334  0.46081  Biso   1.000  Ne
  He41     1.0000 0.26452  0.03724  0.45074  Biso   1.000  He
  He42     1.0000 0.24421  0.02994  0.47497  Biso   1.000  He
  Ne42     1.0000 0.21342  0.02202  0.46963  Biso   1.000  Ne
  Ne43     1.0000 0.73265  0.36791  0.16754  Biso   1.000  Ne
  He43     1.0000 0.70855  0.37533  0.18631  Biso   1.000  He
  He44     1.0000 0.68891  0.40151  0.17697  Biso   1.000  He
  Ne44     1.0000 0.66580  0.40310  0.20135  Biso   1.000  Ne
  Ne45     1.0000 0.21495  0.30571  0.46957  Biso   1.000  Ne
  He45     1.0000 0.19246  0.32409  0.45803  Biso   1.000  He
  He46     1.0000 0.18851  0.35345  0.47287  Biso   1.000  He
  Ne46     1.0000 0.16609  0.37344  0.45795  Biso   1.000  Ne
  Ne47     1.0000 0.18604  0.37937  0.62538  Biso   1.000  Ne
  He47     1.0000 0.17587  0.38084  0.65751  Biso   1.000  He
  He48     1.0000 0.18774  0.35736  0.67669  Biso   1.000  He
  Ne48     1.0000 0.17043  0.35597  0.70588  Biso   1.000  Ne
  Ne49     1.0000 0.92390  0.06977  0.19687  Biso   1.000  Ne
  He49     1.0000 0.89793  0.06642  0.21967  Biso   1.000  He
  He50     1.0000 0.90558  0.07624  0.24878  Biso   1.000  He
  Ne50     1.0000 0.88133  0.07246  0.27060  Biso   1.000  Ne
  Ne51     1.0000 0.40153  0.54673  0.84822  Biso   1.000  Ne
  He51     1.0000 0.36712  0.54281  0.85256  Biso   1.000  He
  He52     1.0000 0.34686  0.56172  0.83585  Biso   1.000  He
  Ne52     1.0000 0.31295  0.55938  0.84505  Biso   1.000  Ne
  Ne53     1.0000 0.97932  0.42267  0.54501  Biso   1.000  Ne
  He53     1.0000 0.96173  0.44278  0.56692  Biso   1.000  He
  He54     1.0000 0.93257  0.44622  0.55148  Biso   1.000  He
  Ne54     1.0000 0.91031  0.46176  0.56933  Biso   1.000  Ne
  Ne55     1.0000 0.63473  0.11244  0.64202  Biso   1.000  Ne
  He55     1.0000 0.62267  0.10253  0.61257  Biso   1.000  He
  He56     1.0000 0.59702  0.08071  0.61567  Biso   1.000  He
  Ne56     1.0000 0.58010  0.07638  0.58793  Biso   1.000  Ne
  Ne57     1.0000 0.37811  0.21350  0.29328  Biso   1.000  Ne
  He57     1.0000 0.38103  0.20354  0.26125  Biso   1.000  He
  He58     1.0000 0.39811  0.22220  0.24022  Biso   1.000  He
  Ne58     1.0000 0.40396  0.21069  0.21316  Biso   1.000  Ne
  Ne59     1.0000 0.90718  0.85925  0.14972  Biso   1.000  Ne
  He59     1.0000 0.90395  0.87141  0.12138  Biso   1.000  He
  He60     1.0000 0.89391  0.90273  0.12348  Biso   1.000  He
  Ne60     1.0000 0.89043  0.91798  0.09400  Biso   1.000  Ne
  Ne61     1.0000 0.90471  0.72645  0.10218  Biso   1.000  Ne
  He61     1.0000 0.88619  0.74209  0.12243  Biso   1.000  He
  He62     1.0000 0.88878  0.77721  0.12100  Biso   1.000  He
  Ne62     1.0000 0.86973  0.79165  0.14259  Biso   1.000  Ne
  Ne63     1.0000 0.53062  0.39905  0.02769  Biso   1.000  Ne
  He63     1.0000 0.54944  0.40280  0.05312  Biso   1.000  He
  He64     1.0000 0.56424  0.43385  0.05270  Biso   1.000  He
  Ne64     1.0000 0.58637  0.43848  0.07939  Biso   1.000  Ne
  Ne65     1.0000 0.06789  0.44170  0.61433  Biso   1.000  Ne
  He65     1.0000 0.08372  0.41242  0.60736  Biso   1.000  He
  He66     1.0000 0.07638  0.38779  0.62962  Biso   1.000  He
  Ne66     1.0000 0.09762  0.36044  0.62613  Biso   1.000  Ne
  Ne67     1.0000 0.59074  0.05261  0.73392  Biso   1.000  Ne
  He67     1.0000 0.61843  0.06244  0.71267  Biso   1.000  He
  He68     1.0000 0.64921  0.06196  0.72695  Biso   1.000  He
  Ne68     1.0000 0.67561  0.06684  0.70605  Biso   1.000  Ne
  Ne69     1.0000 0.42820  0.36793  0.94673  Biso   1.000  Ne
  He69     1.0000 0.43619  0.40030  0.95562  Biso   1.000  He
  He70     1.0000 0.42184  0.41216  0.98615  Biso   1.000  He
  Ne70     1.0000 0.39619  0.43358  0.97876  Biso   1.000  Ne
  Ne71     1.0000 0.57029  0.39438  0.25252  Biso   1.000  Ne
  He71     1.0000 0.59261  0.40639  0.27396  Biso   1.000  He
  He72     1.0000 0.62141  0.39203  0.27181  Biso   1.000  He
  Ne72     1.0000 0.64315  0.39791  0.29625  Biso   1.000  Ne
  Ne73     1.0000 0.62216  0.36524  0.95522  Biso   1.000  Ne
  He73     1.0000 0.59638  0.38399  0.95737  Biso   1.000  He
  He74     1.0000 0.59803  0.41845  0.95883  Biso   1.000  He
  Ne74     1.0000 0.56890  0.43066  0.96290  Biso   1.000  Ne
  Ne75     1.0000 0.69535  0.48967  0.45426  Biso   1.000  Ne
  He75     1.0000 0.68805  0.45822  0.44306  Biso   1.000  He
  He76     1.0000 0.69796  0.43184  0.46280  Biso   1.000  He
  Ne76     1.0000 0.68700  0.40114  0.45269  Biso   1.000  Ne
  Ne77     1.0000 0.38414  0.37096  0.18760  Biso   1.000  Ne
  He77     1.0000 0.37844  0.35919  0.21773  Biso   1.000  He
  He78     1.0000 0.40469  0.36486  0.23760  Biso   1.000  He
  Ne78     1.0000 0.40236  0.35032  0.26570  Biso   1.000  Ne
  Ne79     1.0000 0.63726  0.57760  0.94235  Biso   1.000  Ne
  He79     1.0000 0.61512  0.56366  0.92201  Biso   1.000  He
  He80     1.0000 0.60735  0.58069  0.89789  Biso   1.000  He
  Ne80     1.0000 0.58553  0.56498  0.87769  Biso   1.000  Ne
  Ne81     1.0000 0.41870  0.54200  0.00559  Biso   1.000  Ne
  He81     1.0000 0.40130  0.55702  0.98086  Biso   1.000  He
  He82     1.0000 0.41799  0.58639  0.96690  Biso   1.000  He
  Ne82     1.0000 0.40806  0.59303  0.93781  Biso   1.000  Ne
  Ne83     1.0000 0.05216  0.58512  0.60544  Biso   1.000  Ne
  He83     1.0000 0.07270  0.56348  0.59265  Biso   1.000  He
  He84     1.0000 0.05942  0.54655  0.56561  Biso   1.000  He
  Ne84     1.0000 0.07993  0.52710  0.54651  Biso   1.000  Ne
  Ne85     1.0000 0.91188  0.58675  0.38302  Biso   1.000  Ne
  He85     1.0000 0.89935  0.59141  0.35186  Biso   1.000  He
  He86     1.0000 0.92204  0.59121  0.32869  Biso   1.000  He
  Ne86     1.0000 0.90712  0.59223  0.29662  Biso   1.000  Ne
  Ne87     1.0000 0.94807  0.37968  0.47903  Biso   1.000  Ne
  He87     1.0000 0.93633  0.37503  0.44962  Biso   1.000  He
  He88     1.0000 0.92429  0.40287  0.43843  Biso   1.000  He
  Ne88     1.0000 0.90852  0.39827  0.40875  Biso   1.000  Ne
  Ne89     1.0000 0.36312  0.25309  0.48569  Biso   1.000  Ne
  He89     1.0000 0.34780  0.26552  0.51422  Biso   1.000  He
  He90     1.0000 0.33758  0.29780  0.51351  Biso   1.000  He
  Ne90     1.0000 0.32968  0.30665  0.54341  Biso   1.000  Ne
  Ne91     1.0000 0.33776  0.08456  0.61835  Biso   1.000  Ne
  He91     1.0000 0.33165  0.09940  0.64564  Biso   1.000  He
  He92     1.0000 0.33585  0.07785  0.67041  Biso   1.000  He
  Ne92     1.0000 0.33179  0.08821  0.70071  Biso   1.000  Ne
  Ne93     1.0000 0.16910  0.63564  0.59788  Biso   1.000  Ne
  He93     1.0000 0.18566  0.62148  0.62319  Biso   1.000  He
  He94     1.0000 0.19799  0.64255  0.64551  Biso   1.000  He
  Ne94     1.0000 0.21901  0.63096  0.67018  Biso   1.000  Ne
  Ne95     1.0000 0.33045  0.31596  0.12406  Biso   1.000  Ne
  He95     1.0000 0.34687  0.28865  0.12622  Biso   1.000  He
  He96     1.0000 0.37985  0.29310  0.11749  Biso   1.000  He
  Ne96     1.0000 0.39925  0.26783  0.11148  Biso   1.000  Ne
  Ne97     1.0000 0.06760  0.17233  0.73060  Biso   1.000  Ne
  He97     1.0000 0.08783  0.19735  0.71997  Biso   1.000  He
  He98     1.0000 0.11979  0.18804  0.70970  Biso   1.000  He
  Ne98     1.0000 0.14107  0.21370  0.70116  Biso   1.000  Ne
  Ne99     1.0000 0.08427  0.55839  0.72819  Biso   1.000  Ne
  He99     1.0000 0.10860  0.56178  0.70537  Biso   1.000  He
  He100    1.0000 0.10146  0.54987  0.67788  Biso   1.000  He
  Ne100    1.0000 0.12646  0.55046  0.64991  Biso   1.000  Ne
  Ne101    1.0000 0.27293  0.61916  0.94694  Biso   1.000  Ne
  He101    1.0000 0.28046  0.58625  0.94844  Biso   1.000  He
  He102    1.0000 0.31288  0.57763  0.94063  Biso   1.000  He
  Ne102    1.0000 0.31871  0.54608  0.94844  Biso   1.000  Ne
  Ne103    1.0000 0.28832  0.56934  0.12929  Biso   1.000  Ne
  He103    1.0000 0.30114  0.59163  0.14695  Biso   1.000  He
  He104    1.0000 0.31200  0.61759  0.12986  Biso   1.000  He
  Ne104    1.0000 0.32671  0.64107  0.14508  Biso   1.000  Ne
  Ne105    1.0000 0.63265  0.89938  0.45077  Biso   1.000  Ne
  He105    1.0000 0.63205  0.90524  0.41965  Biso   1.000  He
  He106    1.0000 0.65778  0.89569  0.40148  Biso   1.000  He
  Ne106    1.0000 0.65145  0.88395  0.36924  Biso   1.000  Ne
  Ne107    1.0000 0.43135  0.95325  0.48806  Biso   1.000  Ne
  He107    1.0000 0.44179  0.92294  0.47962  Biso   1.000  He
  He108    1.0000 0.42460  0.90951  0.45718  Biso   1.000  He
  Ne108    1.0000 0.43590  0.87827  0.45087  Biso   1.000  Ne
  Ne109    1.0000 0.77292  0.90653  0.61711  Biso   1.000  Ne
  He109    1.0000 0.74657  0.88799  0.61922  Biso   1.000  He
  He110    1.0000 0.71597  0.90170  0.62448  Biso   1.000  He
  Ne110    1.0000 0.69172  0.87997  0.62890  Biso   1.000  Ne
  Ne111    1.0000 0.61639  0.06138  0.45020  Biso   1.000  Ne
  He111    1.0000 0.63465  0.08872  0.45632  Biso   1.000  He
  He112    1.0000 0.66581  0.08113  0.44925  Biso   1.000  He
  Ne112    1.0000 0.68746  0.10697  0.45352  Biso   1.000  Ne
  Ne113    1.0000 0.38675  0.71692  0.97379  Biso   1.000  Ne
  He113    1.0000 0.39361  0.68691  0.96470  Biso   1.000  He
  He114    1.0000 0.37821  0.66279  0.98091  Biso   1.000  He
  Ne114    1.0000 0.35515  0.64781  0.96537  Biso   1.000  Ne
  Ne115    1.0000 0.92912  0.19746  0.15048  Biso   1.000  Ne
  He115    1.0000 0.92855  0.17078  0.13098  Biso   1.000  He
  He116    1.0000 0.93242  0.14101  0.14621  Biso   1.000  He
  Ne116    1.0000 0.93344  0.11705  0.12243  Biso   1.000  Ne
  Ne117    1.0000 0.90554  0.40503  0.72343  Biso   1.000  Ne
  He117    1.0000 0.87178  0.40204  0.72329  Biso   1.000  He
  He118    1.0000 0.85612  0.40761  0.69455  Biso   1.000  He
  Ne118    1.0000 0.82445  0.40941  0.69781  Biso   1.000  Ne
  Ne119    1.0000 0.89701  0.83326  0.97011  Biso   1.000  Ne
  He119    1.0000 0.90746  0.86267  0.95690  Biso   1.000  He
  He120    1.0000 0.91719  0.88324  0.98042  Biso   1.000  He
  Ne120    1.0000 0.93509  0.90868  0.96529  Biso   1.000  Ne
  Ne121    1.0000 0.33651  0.29453  0.94983  Biso   1.000  Ne
  He121    1.0000 0.36559  0.30777  0.93837  Biso   1.000  He
  He122    1.0000 0.39267  0.29009  0.93804  Biso   1.000  He
  Ne122    1.0000 0.41783  0.30246  0.92062  Biso   1.000  Ne
  Ne123    1.0000 0.12116  0.18177  0.23322  Biso   1.000  Ne
  He123    1.0000 0.10822  0.17386  0.26309  Biso   1.000  He
  He124    1.0000 0.11520  0.19517  0.28863  Biso   1.000  He
  Ne124    1.0000 0.09914  0.18823  0.31795  Biso   1.000  Ne
  Ne125    1.0000 0.91626  0.67598  0.41374  Biso   1.000  Ne
  He125    1.0000 0.91248  0.67946  0.44827  Biso   1.000  He
  He126    1.0000 0.89359  0.70608  0.45476  Biso   1.000  He
  Ne126    1.0000 0.88787  0.70927  0.48550  Biso   1.000  Ne
  Ne127    1.0000 0.40587  0.20120  0.67093  Biso   1.000  Ne
  He127    1.0000 0.41315  0.17443  0.65251  Biso   1.000  He
  He128    1.0000 0.39323  0.14803  0.65323  Biso   1.000  He
  Ne128    1.0000 0.40585  0.12530  0.63380  Biso   1.000  Ne
  Ne129    1.0000 0.07200  0.09947  0.11725  Biso   1.000  Ne
  He129    1.0000 0.07573  0.06656  0.11198  Biso   1.000  He
  He130    1.0000 0.05877  0.04699  0.13035  Biso   1.000  He
  Ne130    1.0000 0.06550  0.01256  0.12896  Biso   1.000  Ne
  Ne131    1.0000 0.56658  0.76572  0.38613  Biso   1.000  Ne
  He131    1.0000 0.57567  0.79889  0.39043  Biso   1.000  He
  He132    1.0000 0.56119  0.82115  0.37333  Biso   1.000  He
  Ne132    1.0000 0.57027  0.85321  0.37596  Biso   1.000  Ne
  Ne133    1.0000 0.47381  0.03377  0.62350  Biso   1.000  Ne
  He133    1.0000 0.45873  0.01768  0.60009  Biso   1.000  He
  He134    1.0000 0.43030  0.03299  0.59557  Biso   1.000  He
  Ne134    1.0000 0.41146  0.01839  0.57405  Biso   1.000  Ne
  Ne135    1.0000 0.31777  0.50696  0.58413  Biso   1.000  Ne
  He135    1.0000 0.28845  0.52071  0.59328  Biso   1.000  He
  He136    1.0000 0.27279  0.53738  0.56733  Biso   1.000  He
  Ne136    1.0000 0.24750  0.55567  0.57767  Biso   1.000  Ne
  Ne137    1.0000 0.14716  0.28705  0.32250  Biso   1.000  Ne
  He137    1.0000 0.11662  0.28630  0.32808  Biso   1.000  He
  He138    1.0000 0.10742  0.26392  0.35075  Biso   1.000  He
  Ne138    1.0000 0.07755  0.26098  0.35747  Biso   1.000  Ne
  Ne139    1.0000 0.56440  0.79774  0.67113  Biso   1.000  Ne
  He139    1.0000 0.58723  0.80561  0.64770  Biso   1.000  He
  He140    1.0000 0.61745  0.81329  0.65861  Biso   1.000  He
  Ne140    1.0000 0.64021  0.82561  0.63574  Biso   1.000  Ne
  Ne141    1.0000 0.96980  0.02558  0.07253  Biso   1.000  Ne
  He141    1.0000 0.94205  0.01362  0.08869  Biso   1.000  He
  He142    1.0000 0.93333  0.03016  0.11552  Biso   1.000  He
  Ne142    1.0000 0.94910  0.01896  0.14161  Biso   1.000  Ne
  Ne143    1.0000 0.00649  0.88723  0.03748  Biso   1.000  Ne
  He143    1.0000 0.03327  0.90119  0.04985  Biso   1.000  He
  He144    1.0000 0.03697  0.93359  0.04580  Biso   1.000  He
  Ne144    1.0000 0.05575  0.94655  0.07083  Biso   1.000  Ne
  Ne145    1.0000 0.85560  0.57376  0.62875  Biso   1.000  Ne
  He145    1.0000 0.86879  0.57794  0.65805  Biso   1.000  He
  He146    1.0000 0.90196  0.58288  0.65746  Biso   1.000  He
  Ne146    1.0000 0.91486  0.57992  0.68778  Biso   1.000  Ne
  Ne147    1.0000 0.79901  0.69691  0.99647  Biso   1.000  Ne
  He147    1.0000 0.81583  0.72437  0.98421  Biso   1.000  He
  He148    1.0000 0.80558  0.73673  0.95543  Biso   1.000  He
  Ne148    1.0000 0.82232  0.72728  0.92903  Biso   1.000  Ne
  Ne149    1.0000 0.02195  0.43829  0.48263  Biso   1.000  Ne
  He149    1.0000 0.00834  0.46760  0.47719  Biso   1.000  He
  He150    1.0000 0.97491  0.47064  0.47282  Biso   1.000  He
  Ne150    1.0000 0.96141  0.49835  0.46598  Biso   1.000  Ne
  Ne151    1.0000 0.89726  0.87132  0.80977  Biso   1.000  Ne
  He151    1.0000 0.91426  0.89790  0.79981  Biso   1.000  He
  He152    1.0000 0.94426  0.89031  0.78772  Biso   1.000  He
  Ne152    1.0000 0.95642  0.91776  0.77728  Biso   1.000  Ne
  Ne153    1.0000 0.90071  0.10301  0.97888  Biso   1.000  Ne
  He153    1.0000 0.91286  0.09929  0.94707  Biso   1.000  He
  He154    1.0000 0.89408  0.11314  0.92538  Biso   1.000  He
  Ne154    1.0000 0.90536  0.11214  0.89585  Biso   1.000  Ne
  Ne155    1.0000 0.10202  0.66491  0.39065  Biso   1.000  Ne
  He155    1.0000 0.09738  0.67005  0.42561  Biso   1.000  He
  He156    1.0000 0.09168  0.70062  0.43038  Biso   1.000  He
  Ne156    1.0000 0.08719  0.71194  0.46302  Biso   1.000  Ne
  Ne157    1.0000 0.75782  0.38802  0.27763  Biso   1.000  Ne
  He157    1.0000 0.74610  0.39460  0.30671  Biso   1.000  He
  He158    1.0000 0.74768  0.42621  0.31599  Biso   1.000  He
  Ne158    1.0000 0.73801  0.43154  0.34768  Biso   1.000  Ne
  Ne159    1.0000 0.08845  0.08521  0.19273  Biso   1.000  Ne
  He159    1.0000 0.07918  0.09109  0.22337  Biso   1.000  He
  He160    1.0000 0.06814  0.06336  0.24071  Biso   1.000  He
  Ne160    1.0000 0.07089  0.06675  0.27304  Biso   1.000  Ne
  Ne161    1.0000 0.39849  0.13485  0.45648  Biso   1.000  Ne
  He161    1.0000 0.36776  0.13309  0.46973  Biso   1.000  He
  He162    1.0000 0.34228  0.13547  0.44755  Biso   1.000  He
  Ne162    1.0000 0.30939  0.13736  0.46116  Biso   1.000  Ne
  Ne163    1.0000 0.92400  0.55113  0.56699  Biso   1.000  Ne
  He163    1.0000 0.94818  0.56023  0.58904  Biso   1.000  He
  He164    1.0000 0.97580  0.54248  0.58964  Biso   1.000  He
  Ne164    1.0000 0.97709  0.51934  0.61363  Biso   1.000  Ne
  Ne165    1.0000 0.53593  0.91389  0.54396  Biso   1.000  Ne
  He165    1.0000 0.53854  0.92550  0.51366  Biso   1.000  He
  He166    1.0000 0.53638  0.90576  0.48927  Biso   1.000  He
  Ne166    1.0000 0.54084  0.91984  0.45982  Biso   1.000  Ne
  Ne167    1.0000 0.59576  0.58190  0.22700  Biso   1.000  Ne
  He167    1.0000 0.62721  0.58918  0.23357  Biso   1.000  He
  He168    1.0000 0.63882  0.56555  0.25487  Biso   1.000  He
  Ne168    1.0000 0.67133  0.57279  0.26873  Biso   1.000  Ne
  Ne169    1.0000 0.36087  0.54289  0.21013  Biso   1.000  Ne
  He169    1.0000 0.37392  0.57433  0.20512  Biso   1.000  He
  He170    1.0000 0.38933  0.58766  0.22914  Biso   1.000  He
  Ne170    1.0000 0.40567  0.61571  0.21834  Biso   1.000  Ne
  Ne171    1.0000 0.43391  0.91677  0.57043  Biso   1.000  Ne
  He171    1.0000 0.43925  0.92462  0.60482  Biso   1.000  He
  He172    1.0000 0.42286  0.90528  0.62690  Biso   1.000  He
  Ne172    1.0000 0.40615  0.92175  0.64838  Biso   1.000  Ne
  Ne173    1.0000 0.12271  0.07423  0.95818  Biso   1.000  Ne
  He173    1.0000 0.11128  0.08323  0.92837  Biso   1.000  He
  He174    1.0000 0.07755  0.08109  0.92629  Biso   1.000  He
  Ne174    1.0000 0.06710  0.08605  0.89347  Biso   1.000  Ne
  Ne175    1.0000 0.39534  0.07232  0.39108  Biso   1.000  Ne
  He175    1.0000 0.38929  0.05089  0.41746  Biso   1.000  He
  He176    1.0000 0.41622  0.04704  0.43733  Biso   1.000  He
  Ne176    1.0000 0.41210  0.02156  0.45916  Biso   1.000  Ne
  Ne177    1.0000 0.48882  0.44461  0.09901  Biso   1.000  Ne
  He177    1.0000 0.46009  0.43855  0.11262  Biso   1.000  He
  He178    1.0000 0.45155  0.40680  0.10432  Biso   1.000  He
  Ne178    1.0000 0.42493  0.39420  0.12089  Biso   1.000  Ne
  Ne179    1.0000 0.43437  0.57411  0.13264  Biso   1.000  Ne
  He179    1.0000 0.40429  0.56895  0.11522  Biso   1.000  He
  He180    1.0000 0.38464  0.54179  0.12685  Biso   1.000  He
  Ne180    1.0000 0.35652  0.53995  0.11186  Biso   1.000  Ne
