data_image0
_cell_length_a       46.4726
_cell_length_b       46.9647
_cell_length_c       46.5798
_cell_angle_alpha    90
_cell_angle_beta     90
_cell_angle_gamma    90

_symmetry_space_group_name_H-M    "P 1"
_symmetry_int_tables_number       1

loop_
  _symmetry_equiv_pos_as_xyz
  'x, y, z'

loop_
  _atom_site_label
  _atom_site_occupancy
  _atom_site_fract_x
  _atom_site_fract_y
  _atom_site_fract_z
  _atom_site_thermal_displace_type
  _atom_site_B_iso_or_equiv
  _atom_site_type_symbol
  Ne1      1.0000 0.59550  0.39522  0.06409  Biso   1.000  Ne
  He1      1.0000 0.61055  0.41454  0.04010  Biso   1.000  He
  He2      1.0000 0.59346  0.41741  0.01182  Biso   1.000  He
  Ne2      1.0000 0.60500  0.43543  0.98741  Biso   1.000  Ne
  Ne3      1.0000 0.05979  0.65461  0.17576  Biso   1.000  Ne
  He3      1.0000 0.09189  0.65019  0.19012  Biso   1.000  He
  He4      1.0000 0.09574  0.66850  0.21712  Biso   1.000  He
  Ne4      1.0000 0.12597  0.66452  0.22935  Biso   1.000  Ne
  Ne5      1.0000 0.96196  0.72176  0.34369  Biso   1.000  Ne
  He5      1.0000 0.95170  0.71099  0.31481  Biso   1.000  He
  He6      1.0000 0.92993  0.73301  0.29914  Biso   1.000  He
  Ne6      1.0000 0.91414  0.72559  0.26843  Biso   1.000  Ne
  Ne7      1.0000 0.45169  0.57779  0.19599  Biso   1.000  Ne
  He7      1.0000 0.42556  0.58257  0.17688  Biso   1.000  He
  He8      1.0000 0.43085  0.57453  0.14385  Biso   1.000  He
  Ne8      1.0000 0.40547  0.58491  0.12488  Biso   1.000  Ne
  Ne9      1.0000 0.14034  0.82062  0.83376  Biso   1.000  Ne
  He9      1.0000 0.13690  0.81400  0.86694  Biso   1.000  He
  He10     1.0000 0.14802  0.78721  0.87711  Biso   1.000  He
  Ne10     1.0000 0.15127  0.78418  0.91109  Biso   1.000  Ne
  Ne11     1.0000 0.46905  0.33260  0.87518  Biso   1.000  Ne
  He11     1.0000 0.45196  0.31316  0.89195  Biso   1.000  He
  He12     1.0000 0.46276  0.28362  0.88766  Biso   1.000  He
  Ne12     1.0000 0.44255  0.26142  0.89643  Biso   1.000  Ne
  Ne13     1.0000 0.13968  0.59902  0.66031  Biso   1.000  Ne
  He13     1.0000 0.12768  0.62935  0.66172  Biso   1.000  He
  He14     1.0000 0.13598  0.64794  0.63688  Biso   1.000  He
  Ne14     1.0000 0.13034  0.68123  0.63797  Biso   1.000  Ne
  Ne15     1.0000 0.97278  0.40677  0.38307  Biso   1.000  Ne
  He15     1.0000 0.97276  0.37497  0.39273  Biso   1.000  He
  He16     1.0000 0.94407  0.36192  0.40550  Biso   1.000  He
  Ne16     1.0000 0.94611  0.32865  0.41075  Biso   1.000  Ne
  Ne17     1.0000 0.43522  0.06109  0.24890  Biso   1.000  Ne
  He17     1.0000 0.42815  0.08396  0.27331  Biso   1.000  He
  He18     1.0000 0.40026  0.09981  0.27315  Biso   1.000  He
  Ne18     1.0000 0.39847  0.12528  0.29401  Biso   1.000  Ne
  Ne19     1.0000 0.61915  0.59528  0.14053  Biso   1.000  Ne
  He19     1.0000 0.62550  0.59337  0.17456  Biso   1.000  He
  He20     1.0000 0.65429  0.59951  0.18412  Biso   1.000  He
  Ne20     1.0000 0.67824  0.57623  0.19220  Biso   1.000  Ne
  Ne21     1.0000 0.13521  0.81353  0.73799  Biso   1.000  Ne
  He21     1.0000 0.12319  0.79873  0.71208  Biso   1.000  He
  He22     1.0000 0.14062  0.80528  0.68384  Biso   1.000  He
  Ne22     1.0000 0.13563  0.78456  0.65636  Biso   1.000  Ne
  Ne23     1.0000 0.36120  0.07380  0.61557  Biso   1.000  Ne
  He23     1.0000 0.38791  0.09119  0.60735  Biso   1.000  He
  He24     1.0000 0.38162  0.11982  0.59125  Biso   1.000  He
  Ne24     1.0000 0.40983  0.13794  0.58264  Biso   1.000  Ne
  Ne25     1.0000 0.47797  0.46725  0.94690  Biso   1.000  Ne
  He25     1.0000 0.47437  0.43617  0.93890  Biso   1.000  He
  He26     1.0000 0.44774  0.43167  0.92163  Biso   1.000  He
  Ne26     1.0000 0.43983  0.40122  0.91318  Biso   1.000  Ne
  Ne27     1.0000 0.24822  0.85435  0.08863  Biso   1.000  Ne
  He27     1.0000 0.27071  0.87109  0.06864  Biso   1.000  He
  He28     1.0000 0.29765  0.88001  0.08235  Biso   1.000  He
  Ne28     1.0000 0.31808  0.89865  0.06176  Biso   1.000  Ne
  Ne29     1.0000 0.55173  0.05180  0.40409  Biso   1.000  Ne
  He29     1.0000 0.58520  0.04927  0.40899  Biso   1.000  He
  He30     1.0000 0.59589  0.06534  0.43712  Biso   1.000  He
  Ne30     1.0000 0.62369  0.05552  0.45239  Biso   1.000  Ne
  Ne31     1.0000 0.28433  0.86750  0.60673  Biso   1.000  Ne
  He31     1.0000 0.31622  0.86994  0.59920  Biso   1.000  He
  He32     1.0000 0.32600  0.89993  0.58815  Biso   1.000  He
  Ne32     1.0000 0.35865  0.90238  0.58039  Biso   1.000  Ne
  Ne33     1.0000 0.83879  0.09231  0.28727  Biso   1.000  Ne
  He33     1.0000 0.80898  0.08971  0.26915  Biso   1.000  He
  He34     1.0000 0.78384  0.07723  0.28812  Biso   1.000  He
  Ne34     1.0000 0.75553  0.07408  0.27279  Biso   1.000  Ne
  Ne35     1.0000 0.95046  0.10038  0.79584  Biso   1.000  Ne
  He35     1.0000 0.93575  0.08999  0.82119  Biso   1.000  He
  He36     1.0000 0.90275  0.09282  0.82051  Biso   1.000  He
  Ne36     1.0000 0.88869  0.07990  0.84659  Biso   1.000  Ne
  Ne37     1.0000 0.09954  0.07567  0.96485  Biso   1.000  Ne
  He37     1.0000 0.07590  0.09199  0.94886  Biso   1.000  He
  He38     1.0000 0.04676  0.07248  0.94626  Biso   1.000  He
  Ne38     1.0000 0.01898  0.08512  0.93033  Biso   1.000  Ne
  Ne39     1.0000 0.22760  0.33869  0.56728  Biso   1.000  Ne
  He39     1.0000 0.24185  0.36056  0.58428  Biso   1.000  He
  He40     1.0000 0.22226  0.37083  0.60782  Biso   1.000  He
  Ne40     1.0000 0.23542  0.39362  0.62539  Biso   1.000  Ne
  Ne41     1.0000 0.28784  0.87258  0.39533  Biso   1.000  Ne
  He41     1.0000 0.31656  0.88889  0.39660  Biso   1.000  He
  He42     1.0000 0.33277  0.89062  0.36685  Biso   1.000  He
  Ne42     1.0000 0.36392  0.90884  0.37166  Biso   1.000  Ne
  Ne43     1.0000 0.13503  0.55939  0.31196  Biso   1.000  Ne
  He43     1.0000 0.15871  0.56637  0.29144  Biso   1.000  He
  He44     1.0000 0.14571  0.57459  0.26324  Biso   1.000  He
  Ne44     1.0000 0.16459  0.58626  0.23938  Biso   1.000  Ne
  Ne45     1.0000 0.69719  0.16021  0.39514  Biso   1.000  Ne
  He45     1.0000 0.69417  0.12574  0.39521  Biso   1.000  He
  He46     1.0000 0.72299  0.11039  0.38904  Biso   1.000  He
  Ne46     1.0000 0.72045  0.07683  0.38990  Biso   1.000  Ne
  Ne47     1.0000 0.62826  0.39992  0.17381  Biso   1.000  Ne
  He47     1.0000 0.61929  0.36882  0.16553  Biso   1.000  He
  He48     1.0000 0.64045  0.35338  0.14837  Biso   1.000  He
  Ne48     1.0000 0.63263  0.32286  0.13809  Biso   1.000  Ne
  Ne49     1.0000 0.03533  0.36183  0.17334  Biso   1.000  Ne
  He49     1.0000 0.02481  0.33980  0.15038  Biso   1.000  He
  He50     1.0000 0.99391  0.33400  0.15576  Biso   1.000  He
  Ne50     1.0000 0.97947  0.30984  0.13702  Biso   1.000  Ne
  Ne51     1.0000 0.33919  0.18260  0.40181  Biso   1.000  Ne
  He51     1.0000 0.35802  0.21129  0.40847  Biso   1.000  He
  He52     1.0000 0.34084  0.23950  0.41259  Biso   1.000  He
  Ne52     1.0000 0.35990  0.26177  0.42261  Biso   1.000  Ne
  Ne53     1.0000 0.12735  0.20757  0.82961  Biso   1.000  Ne
  He53     1.0000 0.13484  0.17787  0.81500  Biso   1.000  He
  He54     1.0000 0.14495  0.15523  0.83950  Biso   1.000  He
  Ne54     1.0000 0.14979  0.12587  0.82769  Biso   1.000  Ne
  Ne55     1.0000 0.72777  0.37622  0.91620  Biso   1.000  Ne
  He55     1.0000 0.69538  0.38582  0.91966  Biso   1.000  He
  He56     1.0000 0.69141  0.41730  0.91387  Biso   1.000  He
  Ne56     1.0000 0.66107  0.42734  0.92007  Biso   1.000  Ne
  Ne57     1.0000 0.02828  0.03332  0.71775  Biso   1.000  Ne
  He57     1.0000 0.05628  0.01741  0.71534  Biso   1.000  He
  He58     1.0000 0.05195  0.98628  0.70528  Biso   1.000  He
  Ne58     1.0000 0.07726  0.96640  0.71309  Biso   1.000  Ne
  Ne59     1.0000 0.44252  0.91597  0.32823  Biso   1.000  Ne
  He59     1.0000 0.46020  0.89247  0.34601  Biso   1.000  He
  He60     1.0000 0.45974  0.89840  0.37906  Biso   1.000  He
  Ne60     1.0000 0.47674  0.87522  0.39722  Biso   1.000  Ne
  Ne61     1.0000 0.78374  0.90427  0.56367  Biso   1.000  Ne
  He61     1.0000 0.74962  0.91234  0.55771  Biso   1.000  He
  He62     1.0000 0.73273  0.90772  0.58388  Biso   1.000  He
  Ne62     1.0000 0.70075  0.91101  0.57577  Biso   1.000  Ne
  Ne63     1.0000 0.83746  0.58576  0.41459  Biso   1.000  Ne
  He63     1.0000 0.86886  0.56882  0.41708  Biso   1.000  He
  He64     1.0000 0.89524  0.58574  0.42526  Biso   1.000  He
  Ne64     1.0000 0.91999  0.56682  0.42983  Biso   1.000  Ne
  Ne65     1.0000 0.95952  0.84484  0.90924  Biso   1.000  Ne
  He65     1.0000 0.95010  0.87056  0.88545  Biso   1.000  He
  He66     1.0000 0.97377  0.89685  0.88795  Biso   1.000  He
  Ne66     1.0000 0.96824  0.92610  0.87255  Biso   1.000  Ne
  Ne67     1.0000 0.21635  0.92976  0.12016  Biso   1.000  Ne
  He67     1.0000 0.22795  0.92895  0.15105  Biso   1.000  He
  He68     1.0000 0.25968  0.91436  0.15323  Biso   1.000  He
  Ne68     1.0000 0.27368  0.92068  0.18265  Biso   1.000  Ne
  Ne69     1.0000 0.78551  0.72482  0.35558  Biso   1.000  Ne
  He69     1.0000 0.77914  0.75550  0.36766  Biso   1.000  He
  He70     1.0000 0.77916  0.75724  0.40040  Biso   1.000  He
  Ne70     1.0000 0.77338  0.78601  0.41525  Biso   1.000  Ne
  Ne71     1.0000 0.50430  0.52468  0.91324  Biso   1.000  Ne
  He71     1.0000 0.53567  0.51474  0.92191  Biso   1.000  He
  He72     1.0000 0.54521  0.48503  0.91098  Biso   1.000  He
  Ne72     1.0000 0.57801  0.48124  0.91189  Biso   1.000  Ne
  Ne73     1.0000 0.46258  0.45953  0.03893  Biso   1.000  Ne
  He73     1.0000 0.48471  0.47138  0.06028  Biso   1.000  He
  He74     1.0000 0.51670  0.45357  0.06016  Biso   1.000  He
  Ne74     1.0000 0.54161  0.46992  0.07503  Biso   1.000  Ne
  Ne75     1.0000 0.62684  0.90076  0.31548  Biso   1.000  Ne
  He75     1.0000 0.65389  0.90102  0.29965  Biso   1.000  He
  He76     1.0000 0.68209  0.89895  0.31780  Biso   1.000  He
  Ne76     1.0000 0.71085  0.89272  0.29932  Biso   1.000  Ne
  Ne77     1.0000 0.97444  0.89766  0.76701  Biso   1.000  Ne
  He77     1.0000 0.95664  0.87038  0.77401  Biso   1.000  He
  He78     1.0000 0.93456  0.87620  0.79714  Biso   1.000  He
  Ne78     1.0000 0.91758  0.85078  0.80650  Biso   1.000  Ne
  Ne79     1.0000 0.38973  0.42857  0.84292  Biso   1.000  Ne
  He79     1.0000 0.36407  0.43225  0.85957  Biso   1.000  He
  He80     1.0000 0.36188  0.41284  0.88873  Biso   1.000  He
  Ne80     1.0000 0.33369  0.41432  0.91054  Biso   1.000  Ne
  Ne81     1.0000 0.02538  0.95281  0.05694  Biso   1.000  Ne
  He81     1.0000 0.00167  0.93900  0.07359  Biso   1.000  He
  He82     1.0000 0.97361  0.93345  0.05386  Biso   1.000  He
  Ne82     1.0000 0.94508  0.93411  0.07495  Biso   1.000  Ne
  Ne83     1.0000 0.81579  0.60612  0.32393  Biso   1.000  Ne
  He83     1.0000 0.82682  0.61617  0.29414  Biso   1.000  He
  He84     1.0000 0.81932  0.59215  0.27125  Biso   1.000  He
  Ne84     1.0000 0.84523  0.58984  0.25004  Biso   1.000  Ne
  Ne85     1.0000 0.80635  0.68605  0.69052  Biso   1.000  Ne
  He85     1.0000 0.79474  0.66751  0.66636  Biso   1.000  He
  He86     1.0000 0.76381  0.67023  0.65655  Biso   1.000  He
  Ne86     1.0000 0.75355  0.65298  0.63165  Biso   1.000  Ne
  Ne87     1.0000 0.82566  0.11611  0.15712  Biso   1.000  Ne
  He87     1.0000 0.79504  0.10542  0.15993  Biso   1.000  He
  He88     1.0000 0.79207  0.07200  0.15514  Biso   1.000  He
  Ne88     1.0000 0.76524  0.05886  0.16394  Biso   1.000  Ne
  Ne89     1.0000 0.88350  0.55854  0.64904  Biso   1.000  Ne
  He89     1.0000 0.86942  0.56791  0.62162  Biso   1.000  He
  He90     1.0000 0.83782  0.56373  0.61519  Biso   1.000  He
  Ne90     1.0000 0.82617  0.58086  0.59035  Biso   1.000  Ne
  Ne91     1.0000 0.23923  0.12243  0.89521  Biso   1.000  Ne
  He91     1.0000 0.21440  0.11010  0.91350  Biso   1.000  He
  He92     1.0000 0.18929  0.09655  0.89657  Biso   1.000  He
  Ne92     1.0000 0.16340  0.09319  0.91423  Biso   1.000  Ne
  Ne93     1.0000 0.62284  0.12304  0.69473  Biso   1.000  Ne
  He93     1.0000 0.65211  0.12561  0.70882  Biso   1.000  He
  He94     1.0000 0.67627  0.10930  0.69052  Biso   1.000  He
  Ne94     1.0000 0.70481  0.11516  0.70130  Biso   1.000  Ne
  Ne95     1.0000 0.05069  0.57306  0.45601  Biso   1.000  Ne
  He95     1.0000 0.08301  0.56929  0.44984  Biso   1.000  He
  He96     1.0000 0.09264  0.55204  0.42486  Biso   1.000  He
  Ne96     1.0000 0.12537  0.54424  0.42284  Biso   1.000  Ne
  Ne97     1.0000 0.87562  0.07761  0.07785  Biso   1.000  Ne
  He97     1.0000 0.88692  0.08608  0.10973  Biso   1.000  He
  He98     1.0000 0.91302  0.06710  0.11961  Biso   1.000  He
  Ne98     1.0000 0.91919  0.07212  0.15160  Biso   1.000  Ne
  Ne99     1.0000 0.42781  0.63122  0.65218  Biso   1.000  Ne
  He99     1.0000 0.44494  0.60755  0.66747  Biso   1.000  He
  He100    1.0000 0.42655  0.58406  0.68675  Biso   1.000  He
  Ne100    1.0000 0.44602  0.55734  0.69685  Biso   1.000  Ne
  Ne101    1.0000 0.46133  0.08618  0.53227  Biso   1.000  Ne
  He101    1.0000 0.48350  0.06106  0.54273  Biso   1.000  He
  He102    1.0000 0.46956  0.03742  0.56115  Biso   1.000  He
  Ne102    1.0000 0.49205  0.01593  0.57254  Biso   1.000  Ne
  Ne103    1.0000 0.74363  0.57701  0.37842  Biso   1.000  Ne
  He103    1.0000 0.73969  0.58201  0.41126  Biso   1.000  He
  He104    1.0000 0.74576  0.55200  0.42981  Biso   1.000  He
  Ne104    1.0000 0.74539  0.55576  0.46436  Biso   1.000  Ne
  Ne105    1.0000 0.61256  0.26473  0.29244  Biso   1.000  Ne
  He105    1.0000 0.60388  0.29614  0.28504  Biso   1.000  He
  He106    1.0000 0.62048  0.30819  0.25813  Biso   1.000  He
  Ne106    1.0000 0.61103  0.33427  0.24212  Biso   1.000  Ne
  Ne107    1.0000 0.99397  0.59694  0.53947  Biso   1.000  Ne
  He107    1.0000 0.99277  0.56365  0.54521  Biso   1.000  He
  He108    1.0000 0.97908  0.55493  0.57391  Biso   1.000  He
  Ne108    1.0000 0.96835  0.52469  0.57308  Biso   1.000  Ne
  Ne109    1.0000 0.96645  0.02786  0.94011  Biso   1.000  Ne
  He109    1.0000 0.98205  0.00025  0.93819  Biso   1.000  He
  He110    1.0000 0.96845  0.97663  0.95893  Biso   1.000  He
  Ne110    1.0000 0.98242  0.94668  0.95606  Biso   1.000  Ne
  Ne111    1.0000 0.73759  0.40566  0.19305  Biso   1.000  Ne
  He111    1.0000 0.71213  0.40573  0.17005  Biso   1.000  He
  He112    1.0000 0.71570  0.38456  0.14452  Biso   1.000  He
  Ne112    1.0000 0.69549  0.39058  0.11965  Biso   1.000  Ne
  Ne113    1.0000 0.54337  0.98103  0.46112  Biso   1.000  Ne
  He113    1.0000 0.51248  0.98945  0.45025  Biso   1.000  He
  He114    1.0000 0.49895  0.96787  0.42612  Biso   1.000  He
  Ne114    1.0000 0.46706  0.97249  0.42015  Biso   1.000  Ne
  Ne115    1.0000 0.76957  0.31743  0.89681  Biso   1.000  Ne
  He115    1.0000 0.79768  0.30208  0.89313  Biso   1.000  He
  He116    1.0000 0.82106  0.31400  0.91271  Biso   1.000  He
  Ne116    1.0000 0.85065  0.29970  0.91070  Biso   1.000  Ne
  Ne117    1.0000 0.45307  0.68598  0.21581  Biso   1.000  Ne
  He117    1.0000 0.46676  0.66494  0.19254  Biso   1.000  He
  He118    1.0000 0.45820  0.67190  0.16165  Biso   1.000  He
  Ne118    1.0000 0.47158  0.64992  0.14248  Biso   1.000  Ne
  Ne119    1.0000 0.51852  0.68353  0.71031  Biso   1.000  Ne
  He119    1.0000 0.53495  0.68912  0.68264  Biso   1.000  He
  He120    1.0000 0.56624  0.68062  0.68349  Biso   1.000  He
  Ne120    1.0000 0.57090  0.65001  0.67463  Biso   1.000  Ne
  Ne121    1.0000 0.44611  0.41826  0.12210  Biso   1.000  Ne
  He121    1.0000 0.45058  0.41026  0.15415  Biso   1.000  He
  He122    1.0000 0.42881  0.38599  0.16577  Biso   1.000  He
  Ne122    1.0000 0.43660  0.37579  0.19538  Biso   1.000  Ne
  Ne123    1.0000 0.70605  0.81627  0.33895  Biso   1.000  Ne
  He123    1.0000 0.69281  0.82075  0.36912  Biso   1.000  He
  He124    1.0000 0.66087  0.81803  0.36748  Biso   1.000  He
  Ne124    1.0000 0.64843  0.81568  0.40000  Biso   1.000  Ne
  Ne125    1.0000 0.69547  0.57850  0.09411  Biso   1.000  Ne
  He125    1.0000 0.72232  0.55981  0.09269  Biso   1.000  He
  He126    1.0000 0.74912  0.58054  0.09036  Biso   1.000  He
  Ne126    1.0000 0.77820  0.56513  0.08624  Biso   1.000  Ne
  Ne127    1.0000 0.42788  0.11332  0.36345  Biso   1.000  Ne
  He127    1.0000 0.42879  0.08888  0.38537  Biso   1.000  He
  He128    1.0000 0.45928  0.07355  0.38720  Biso   1.000  He
  Ne128    1.0000 0.46355  0.05057  0.41037  Biso   1.000  Ne
  Ne129    1.0000 0.61749  0.52940  0.07988  Biso   1.000  Ne
  He129    1.0000 0.60319  0.53173  0.05138  Biso   1.000  He
  He130    1.0000 0.60445  0.56024  0.03738  Biso   1.000  He
  Ne130    1.0000 0.59352  0.55909  0.00386  Biso   1.000  Ne
  Ne131    1.0000 0.61682  0.09168  0.62369  Biso   1.000  Ne
  He131    1.0000 0.60911  0.08177  0.59402  Biso   1.000  He
  He132    1.0000 0.58857  0.05501  0.58755  Biso   1.000  He
  Ne132    1.0000 0.58275  0.04751  0.55576  Biso   1.000  Ne
  Ne133    1.0000 0.43843  0.89838  0.69671  Biso   1.000  Ne
  He133    1.0000 0.46800  0.90009  0.68586  Biso   1.000  He
  He134    1.0000 0.48091  0.87050  0.67203  Biso   1.000  He
  Ne134    1.0000 0.47266  0.86534  0.63914  Biso   1.000  Ne
  Ne135    1.0000 0.96413  0.34011  0.23890  Biso   1.000  Ne
  He135    1.0000 0.95877  0.36540  0.25794  Biso   1.000  He
  He136    1.0000 0.95484  0.35589  0.28928  Biso   1.000  He
  Ne136    1.0000 0.94314  0.37840  0.31047  Biso   1.000  Ne
  Ne137    1.0000 0.87418  0.89067  0.07273  Biso   1.000  Ne
  He137    1.0000 0.84120  0.89181  0.08168  Biso   1.000  He
  He138    1.0000 0.82165  0.86570  0.07085  Biso   1.000  He
  Ne138    1.0000 0.78920  0.86834  0.07194  Biso   1.000  Ne
  Ne139    1.0000 0.10451  0.56758  0.58231  Biso   1.000  Ne
  He139    1.0000 0.08101  0.54348  0.57277  Biso   1.000  He
  He140    1.0000 0.08752  0.52584  0.54752  Biso   1.000  He
  Ne140    1.0000 0.06010  0.50727  0.54344  Biso   1.000  Ne
  Ne141    1.0000 0.96490  0.85970  0.16535  Biso   1.000  Ne
  He141    1.0000 0.96641  0.84343  0.13783  Biso   1.000  He
  He142    1.0000 0.94383  0.85253  0.11411  Biso   1.000  He
  Ne142    1.0000 0.94022  0.83596  0.08396  Biso   1.000  Ne
  Ne143    1.0000 0.97027  0.31302  0.56379  Biso   1.000  Ne
  He143    1.0000 0.96691  0.34173  0.58076  Biso   1.000  He
  He144    1.0000 0.96607  0.36916  0.56176  Biso   1.000  He
  Ne144    1.0000 0.95994  0.39425  0.58186  Biso   1.000  Ne
  Ne145    1.0000 0.94291  0.18009  0.86417  Biso   1.000  Ne
  He145    1.0000 0.92982  0.14992  0.87534  Biso   1.000  He
  He146    1.0000 0.94715  0.13438  0.89662  Biso   1.000  He
  Ne146    1.0000 0.93104  0.10669  0.90585  Biso   1.000  Ne
  Ne147    1.0000 0.46127  0.57518  0.00494  Biso   1.000  Ne
  He147    1.0000 0.46313  0.55551  0.03295  Biso   1.000  He
  He148    1.0000 0.48066  0.57239  0.05919  Biso   1.000  He
  Ne148    1.0000 0.49371  0.54996  0.08230  Biso   1.000  Ne
  Ne149    1.0000 0.47342  0.67323  0.06282  Biso   1.000  Ne
  He149    1.0000 0.45037  0.64968  0.06231  Biso   1.000  He
  He150    1.0000 0.42138  0.66366  0.06767  Biso   1.000  He
  Ne150    1.0000 0.39334  0.64515  0.06702  Biso   1.000  Ne
  Ne151    1.0000 0.13213  0.32322  0.56209  Biso   1.000  Ne
  He151    1.0000 0.15168  0.33460  0.58654  Biso   1.000  He
  He152    1.0000 0.13606  0.32832  0.61330  Biso   1.000  He
  Ne152    1.0000 0.15639  0.33276  0.64105  Biso   1.000  Ne
  Ne153    1.0000 0.73114  0.28420  0.07803  Biso   1.000  Ne
  He153    1.0000 0.69836  0.29070  0.08197  Biso   1.000  He
  He154    1.0000 0.68386  0.29581  0.05422  Biso   1.000  He
  Ne154    1.0000 0.65530  0.31101  0.05094  Biso   1.000  Ne
  Ne155    1.0000 0.13058  0.93863  0.07935  Biso   1.000  Ne
  He155    1.0000 0.11817  0.96574  0.08096  Biso   1.000  He
  He156    1.0000 0.11429  0.98218  0.05052  Biso   1.000  He
  Ne156    1.0000 0.09918  0.01070  0.05123  Biso   1.000  Ne
  Ne157    1.0000 0.65384  0.59214  0.79913  Biso   1.000  Ne
  He157    1.0000 0.63335  0.60651  0.82242  Biso   1.000  He
  He158    1.0000 0.62577  0.58519  0.84498  Biso   1.000  He
  Ne158    1.0000 0.64006  0.58990  0.87305  Biso   1.000  Ne
  Ne159    1.0000 0.97045  0.58408  0.64091  Biso   1.000  Ne
  He159    1.0000 0.95742  0.60836  0.65806  Biso   1.000  He
  He160    1.0000 0.96384  0.63762  0.64495  Biso   1.000  He
  Ne160    1.0000 0.93801  0.65754  0.64431  Biso   1.000  Ne
  Ne161    1.0000 0.13108  0.85590  0.09681  Biso   1.000  Ne
  He161    1.0000 0.13559  0.82322  0.09339  Biso   1.000  He
  He162    1.0000 0.15772  0.82045  0.06782  Biso   1.000  He
  Ne162    1.0000 0.16777  0.78634  0.06157  Biso   1.000  Ne
  Ne163    1.0000 0.84556  0.41181  0.59313  Biso   1.000  Ne
  He163    1.0000 0.85959  0.38751  0.57172  Biso   1.000  He
  He164    1.0000 0.85631  0.35792  0.58834  Biso   1.000  He
  Ne164    1.0000 0.86960  0.33256  0.57198  Biso   1.000  Ne
  Ne165    1.0000 0.82954  0.16116  0.07527  Biso   1.000  Ne
  He165    1.0000 0.81540  0.13046  0.06709  Biso   1.000  He
  He166    1.0000 0.78503  0.12174  0.07761  Biso   1.000  He
  Ne166    1.0000 0.77293  0.09194  0.06657  Biso   1.000  Ne
  Ne167    1.0000 0.08965  0.43748  0.58096  Biso   1.000  Ne
  He167    1.0000 0.11890  0.42155  0.58901  Biso   1.000  He
  He168    1.0000 0.14344  0.43073  0.56760  Biso   1.000  He
  Ne168    1.0000 0.17393  0.42719  0.57923  Biso   1.000  Ne
  Ne169    1.0000 0.72386  0.89891  0.14633  Biso   1.000  Ne
  He169    1.0000 0.73312  0.89692  0.17883  Biso   1.000  He
  He170    1.0000 0.71559  0.91883  0.19791  Biso   1.000  He
  Ne170    1.0000 0.72833  0.92496  0.22800  Biso   1.000  Ne
  Ne171    1.0000 0.22746  0.91302  0.82695  Biso   1.000  Ne
  He171    1.0000 0.21893  0.92739  0.85463  Biso   1.000  He
  He172    1.0000 0.22922  0.91245  0.88466  Biso   1.000  He
  Ne172    1.0000 0.21297  0.92439  0.90997  Biso   1.000  Ne
  Ne173    1.0000 0.63194  0.87170  0.57132  Biso   1.000  Ne
  He173    1.0000 0.63349  0.85311  0.60220  Biso   1.000  He
  He174    1.0000 0.64279  0.82049  0.60197  Biso   1.000  He
  Ne174    1.0000 0.64210  0.80681  0.63048  Biso   1.000  Ne
  Ne175    1.0000 0.61626  0.69027  0.57639  Biso   1.000  Ne
  He175    1.0000 0.63342  0.71130  0.59464  Biso   1.000  He
  He176    1.0000 0.62770  0.70881  0.62782  Biso   1.000  He
  Ne176    1.0000 0.64332  0.73331  0.64665  Biso   1.000  Ne
  Ne177    1.0000 0.59011  0.92638  0.40566  Biso   1.000  Ne
  He177    1.0000 0.62037  0.91083  0.40113  Biso   1.000  He
  He178    1.0000 0.64469  0.93658  0.39885  Biso   1.000  He
  Ne178    1.0000 0.67587  0.92321  0.39782  Biso   1.000  Ne
  Ne179    1.0000 0.74766  0.09419  0.64142  Biso   1.000  Ne
  He179    1.0000 0.74747  0.10830  0.61216  Biso   1.000  He
  He180    1.0000 0.73641  0.09107  0.58860  Biso   1.000  He
  Ne180    1.0000 0.73216  0.11013  0.56176  Biso   1.000  Ne
  Ne181    1.0000 0.45512  0.58825  0.81483  Biso   1.000  Ne
  He181    1.0000 0.47019  0.60927  0.79445  Biso   1.000  He
  He182    1.0000 0.46061  0.60632  0.76451  Biso   1.000  He
  Ne182    1.0000 0.47370  0.63071  0.74537  Biso   1.000  Ne
  Ne183    1.0000 0.88333  0.92776  0.86642  Biso   1.000  Ne
  He183    1.0000 0.86471  0.91432  0.89017  Biso   1.000  He
  He184    1.0000 0.86971  0.88205  0.88963  Biso   1.000  He
  Ne184    1.0000 0.85535  0.86359  0.91387  Biso   1.000  Ne
  Ne185    1.0000 0.65161  0.06750  0.32966  Biso   1.000  Ne
  He185    1.0000 0.67276  0.07020  0.30316  Biso   1.000  He
  He186    1.0000 0.65517  0.06966  0.27463  Biso   1.000  He
  Ne186    1.0000 0.67246  0.06499  0.24816  Biso   1.000  Ne
  Ne187    1.0000 0.74665  0.65765  0.76752  Biso   1.000  Ne
  He187    1.0000 0.72712  0.64393  0.74387  Biso   1.000  He
  He188    1.0000 0.69280  0.64771  0.74888  Biso   1.000  He
  Ne188    1.0000 0.67231  0.64064  0.72391  Biso   1.000  Ne
  Ne189    1.0000 0.68357  0.94874  0.71195  Biso   1.000  Ne
  He189    1.0000 0.66360  0.93979  0.68609  Biso   1.000  He
  He190    1.0000 0.67512  0.91620  0.66663  Biso   1.000  He
  Ne190    1.0000 0.65358  0.90777  0.64463  Biso   1.000  Ne
  Ne191    1.0000 0.19381  0.15026  0.07028  Biso   1.000  Ne
  He191    1.0000 0.17623  0.17725  0.06960  Biso   1.000  He
  He192    1.0000 0.19487  0.20198  0.07703  Biso   1.000  He
  Ne192    1.0000 0.18235  0.23192  0.07346  Biso   1.000  Ne
  Ne193    1.0000 0.12706  0.91943  0.88196  Biso   1.000  Ne
  He193    1.0000 0.11874  0.91812  0.84962  Biso   1.000  He
  He194    1.0000 0.13926  0.90054  0.82933  Biso   1.000  He
  Ne194    1.0000 0.13041  0.90268  0.79628  Biso   1.000  Ne
  Ne195    1.0000 0.11334  0.68179  0.40699  Biso   1.000  Ne
  He195    1.0000 0.12171  0.65030  0.40334  Biso   1.000  He
  He196    1.0000 0.11202  0.63815  0.37259  Biso   1.000  He
  Ne196    1.0000 0.11690  0.60587  0.36820  Biso   1.000  Ne
  Ne197    1.0000 0.77152  0.66474  0.90776  Biso   1.000  Ne
  He197    1.0000 0.76272  0.69689  0.90565  Biso   1.000  He
  He198    1.0000 0.78799  0.71777  0.90560  Biso   1.000  He
  Ne198    1.0000 0.77721  0.74967  0.89921  Biso   1.000  Ne
  Ne199    1.0000 0.27648  0.35194  0.39223  Biso   1.000  Ne
  He199    1.0000 0.25863  0.37216  0.41236  Biso   1.000  He
  He200    1.0000 0.23693  0.39392  0.39596  Biso   1.000  He
  Ne200    1.0000 0.22383  0.41309  0.41681  Biso   1.000  Ne
  Ne201    1.0000 0.46218  0.69876  0.80462  Biso   1.000  Ne
  He201    1.0000 0.46756  0.69259  0.83732  Biso   1.000  He
  He202    1.0000 0.44395  0.69939  0.85871  Biso   1.000  He
  Ne202    1.0000 0.45916  0.70152  0.88870  Biso   1.000  Ne
  Ne203    1.0000 0.63699  0.95503  0.54168  Biso   1.000  Ne
  He203    1.0000 0.60391  0.94257  0.54069  Biso   1.000  He
  He204    1.0000 0.58393  0.95713  0.56223  Biso   1.000  He
  Ne204    1.0000 0.55465  0.94591  0.56210  Biso   1.000  Ne
  Ne205    1.0000 0.20302  0.63389  0.40496  Biso   1.000  Ne
  He205    1.0000 0.22227  0.61706  0.38475  Biso   1.000  He
  He206    1.0000 0.21006  0.60591  0.35494  Biso   1.000  He
  Ne206    1.0000 0.22766  0.58836  0.33715  Biso   1.000  Ne
  Ne207    1.0000 0.12386  0.23277  0.18607  Biso   1.000  Ne
  He207    1.0000 0.12699  0.23107  0.15419  Biso   1.000  He
  He208    1.0000 0.11249  0.20546  0.14085  Biso   1.000  He
  Ne208    1.0000 0.11356  0.20724  0.10800  Biso   1.000  Ne
  Ne209    1.0000 0.61205  0.41647  0.84736  Biso   1.000  Ne
  He209    1.0000 0.62589  0.40447  0.81934  Biso   1.000  He
  He210    1.0000 0.62620  0.42383  0.78987  Biso   1.000  He
  Ne210    1.0000 0.63253  0.40517  0.76088  Biso   1.000  Ne
  Ne211    1.0000 0.80036  0.78672  0.62215  Biso   1.000  Ne
  He211    1.0000 0.77640  0.78492  0.59678  Biso   1.000  He
  He212    1.0000 0.75551  0.75719  0.59798  Biso   1.000  He
  Ne212    1.0000 0.73081  0.76393  0.57992  Biso   1.000  Ne
  Ne213    1.0000 0.45909  0.06673  0.64431  Biso   1.000  Ne
  He213    1.0000 0.46055  0.07090  0.67700  Biso   1.000  He
  He214    1.0000 0.43234  0.07468  0.69106  Biso   1.000  He
  Ne214    1.0000 0.43216  0.08641  0.72204  Biso   1.000  Ne
  Ne215    1.0000 0.39580  0.60377  0.89565  Biso   1.000  Ne
  He215    1.0000 0.42934  0.59300  0.89438  Biso   1.000  He
  He216    1.0000 0.45415  0.61840  0.89842  Biso   1.000  He
  Ne216    1.0000 0.48723  0.60948  0.89192  Biso   1.000  Ne
  Ne217    1.0000 0.15004  0.36488  0.71613  Biso   1.000  Ne
  He217    1.0000 0.13982  0.38811  0.69613  Biso   1.000  He
  He218    1.0000 0.16351  0.41014  0.69376  Biso   1.000  He
  Ne218    1.0000 0.16289  0.43177  0.66734  Biso   1.000  Ne
  Ne219    1.0000 0.47656  0.93493  0.53298  Biso   1.000  Ne
  He219    1.0000 0.47317  0.90301  0.53225  Biso   1.000  He
  He220    1.0000 0.46666  0.88835  0.56074  Biso   1.000  He
  Ne220    1.0000 0.45953  0.85738  0.55834  Biso   1.000  Ne
  Ne221    1.0000 0.95944  0.40141  0.69612  Biso   1.000  Ne
  He221    1.0000 0.92934  0.39336  0.68795  Biso   1.000  He
  He222    1.0000 0.90956  0.37611  0.71254  Biso   1.000  He
  Ne222    1.0000 0.87782  0.36853  0.70250  Biso   1.000  Ne
  Ne223    1.0000 0.11133  0.37839  0.30099  Biso   1.000  Ne
  He223    1.0000 0.11638  0.36864  0.33522  Biso   1.000  He
  He224    1.0000 0.13260  0.39027  0.35551  Biso   1.000  He
  Ne224    1.0000 0.13118  0.37935  0.38692  Biso   1.000  Ne
  Ne225    1.0000 0.41253  0.21747  0.02872  Biso   1.000  Ne
  He225    1.0000 0.38970  0.19324  0.02576  Biso   1.000  He
  He226    1.0000 0.37459  0.18362  0.05454  Biso   1.000  He
  Ne226    1.0000 0.35181  0.16168  0.05166  Biso   1.000  Ne
  Ne227    1.0000 0.85187  0.91545  0.78175  Biso   1.000  Ne
  He227    1.0000 0.83220  0.89973  0.80582  Biso   1.000  He
  He228    1.0000 0.80940  0.87631  0.79495  Biso   1.000  He
  Ne228    1.0000 0.77919  0.89073  0.79351  Biso   1.000  Ne
  Ne229    1.0000 0.19388  0.68789  0.56614  Biso   1.000  Ne
  He229    1.0000 0.21481  0.66416  0.57118  Biso   1.000  He
  He230    1.0000 0.20289  0.63423  0.56362  Biso   1.000  He
  Ne230    1.0000 0.22590  0.61007  0.55933  Biso   1.000  Ne
  Ne231    1.0000 0.14814  0.94081  0.17226  Biso   1.000  Ne
  He231    1.0000 0.13187  0.91429  0.18355  Biso   1.000  He
  He232    1.0000 0.13990  0.89972  0.21318  Biso   1.000  He
  Ne232    1.0000 0.12021  0.87298  0.22009  Biso   1.000  Ne
  Ne233    1.0000 0.97260  0.57806  0.35567  Biso   1.000  Ne
  He233    1.0000 0.96005  0.60752  0.36210  Biso   1.000  He
  He234    1.0000 0.97012  0.61901  0.39119  Biso   1.000  He
  Ne234    1.0000 0.96117  0.64766  0.39705  Biso   1.000  Ne
  Ne235    1.0000 0.29822  0.18547  0.56440  Biso   1.000  Ne
  He235    1.0000 0.26724  0.18056  0.55161  Biso   1.000  He
  He236    1.0000 0.24802  0.20791  0.54885  Biso   1.000  He
  Ne236    1.0000 0.21609  0.20077  0.54060  Biso   1.000  Ne
  Ne237    1.0000 0.09485  0.10601  0.06252  Biso   1.000  Ne
  He237    1.0000 0.12638  0.10273  0.07578  Biso   1.000  He
  He238    1.0000 0.12424  0.09523  0.10630  Biso   1.000  He
  Ne238    1.0000 0.15598  0.09186  0.12031  Biso   1.000  Ne
  Ne239    1.0000 0.82369  0.40620  0.31376  Biso   1.000  Ne
  He239    1.0000 0.85086  0.41424  0.33022  Biso   1.000  He
  He240    1.0000 0.85381  0.39679  0.35991  Biso   1.000  He
  Ne240    1.0000 0.87896  0.40265  0.37850  Biso   1.000  Ne
