data_image0
_cell_length_a       47.5854
_cell_length_b       46.6454
_cell_length_c       46.527
_cell_angle_alpha    90
_cell_angle_beta     90
_cell_angle_gamma    90

_symmetry_space_group_name_H-M    "P 1"
_symmetry_int_tables_number       1

loop_
  _symmetry_equiv_pos_as_xyz
  'x, y, z'

loop_
  _atom_site_label
  _atom_site_occupancy
  _atom_site_fract_x
  _atom_site_fract_y
  _atom_site_fract_z
  _atom_site_thermal_displace_type
  _atom_site_B_iso_or_equiv
  _atom_site_type_symbol
  Ne1      1.0000 0.35174  0.32417  0.95702  Biso   1.000  Ne
  He1      1.0000 0.32907  0.34847  0.95084  Biso   1.000  He
  He2      1.0000 0.34132  0.37811  0.95264  Biso   1.000  He
  Ne2      1.0000 0.31611  0.39994  0.94791  Biso   1.000  Ne
  Ne3      1.0000 0.56611  0.48912  0.95425  Biso   1.000  Ne
  He3      1.0000 0.58912  0.47918  0.97825  Biso   1.000  He
  He4      1.0000 0.57280  0.45632  0.00017  Biso   1.000  He
  Ne4      1.0000 0.59182  0.44173  0.02242  Biso   1.000  Ne
  Ne5      1.0000 0.34101  0.15608  0.60017  Biso   1.000  Ne
  He5      1.0000 0.37162  0.15165  0.58679  Biso   1.000  He
  He6      1.0000 0.39218  0.12674  0.60007  Biso   1.000  He
  Ne6      1.0000 0.42307  0.12869  0.58469  Biso   1.000  Ne
  Ne7      1.0000 0.93028  0.09371  0.09690  Biso   1.000  Ne
  He7      1.0000 0.89778  0.08345  0.09608  Biso   1.000  He
  He8      1.0000 0.87502  0.10797  0.09405  Biso   1.000  He
  Ne8      1.0000 0.84123  0.10145  0.09683  Biso   1.000  Ne
  Ne9      1.0000 0.07106  0.11578  0.84151  Biso   1.000  Ne
  He9      1.0000 0.09688  0.13444  0.83906  Biso   1.000  He
  He10     1.0000 0.10074  0.15418  0.86420  Biso   1.000  He
  Ne10     1.0000 0.12594  0.17714  0.86320  Biso   1.000  Ne
  Ne11     1.0000 0.94398  0.48236  0.57039  Biso   1.000  Ne
  He11     1.0000 0.95822  0.45329  0.57446  Biso   1.000  He
  He12     1.0000 0.93622  0.43199  0.59072  Biso   1.000  He
  Ne12     1.0000 0.95136  0.40533  0.60124  Biso   1.000  Ne
  Ne13     1.0000 0.23081  0.41853  0.29926  Biso   1.000  Ne
  He13     1.0000 0.20061  0.41023  0.30968  Biso   1.000  He
  He14     1.0000 0.19037  0.42010  0.34078  Biso   1.000  He
  Ne14     1.0000 0.15600  0.41478  0.34284  Biso   1.000  Ne
  Ne15     1.0000 0.76946  0.69268  0.43556  Biso   1.000  Ne
  He15     1.0000 0.78454  0.66169  0.44005  Biso   1.000  He
  He16     1.0000 0.81679  0.65658  0.42786  Biso   1.000  He
  Ne16     1.0000 0.82951  0.62647  0.43501  Biso   1.000  Ne
  Ne17     1.0000 0.67334  0.05052  0.63404  Biso   1.000  Ne
  He17     1.0000 0.69858  0.05091  0.65369  Biso   1.000  He
  He18     1.0000 0.69030  0.04642  0.68471  Biso   1.000  He
  Ne18     1.0000 0.71825  0.04301  0.70029  Biso   1.000  Ne
  Ne19     1.0000 0.39275  0.38823  0.15270  Biso   1.000  Ne
  He19     1.0000 0.36151  0.39593  0.15257  Biso   1.000  He
  He20     1.0000 0.34395  0.39920  0.12149  Biso   1.000  He
  Ne20     1.0000 0.31213  0.41156  0.11914  Biso   1.000  Ne
  Ne21     1.0000 0.42392  0.82224  0.60290  Biso   1.000  Ne
  He21     1.0000 0.40600  0.81304  0.63155  Biso   1.000  He
  He22     1.0000 0.42539  0.81264  0.65808  Biso   1.000  He
  Ne22     1.0000 0.41138  0.80192  0.68417  Biso   1.000  Ne
  Ne23     1.0000 0.63826  0.36619  0.91892  Biso   1.000  Ne
  He23     1.0000 0.61525  0.38715  0.93288  Biso   1.000  He
  He24     1.0000 0.58538  0.37314  0.93674  Biso   1.000  He
  Ne24     1.0000 0.56227  0.39134  0.94820  Biso   1.000  Ne
  Ne25     1.0000 0.39846  0.39961  0.25976  Biso   1.000  Ne
  He25     1.0000 0.36919  0.40592  0.27430  Biso   1.000  He
  He26     1.0000 0.34331  0.40843  0.25263  Biso   1.000  He
  Ne26     1.0000 0.31277  0.40980  0.26886  Biso   1.000  Ne
  Ne27     1.0000 0.40472  0.22998  0.26561  Biso   1.000  Ne
  He27     1.0000 0.40422  0.22734  0.29875  Biso   1.000  He
  He28     1.0000 0.37728  0.24047  0.31433  Biso   1.000  He
  Ne28     1.0000 0.37389  0.24245  0.34918  Biso   1.000  Ne
  Ne29     1.0000 0.72990  0.08284  0.45240  Biso   1.000  Ne
  He29     1.0000 0.73548  0.08784  0.42080  Biso   1.000  He
  He30     1.0000 0.73537  0.06013  0.40140  Biso   1.000  He
  Ne30     1.0000 0.73752  0.06856  0.36983  Biso   1.000  Ne
  Ne31     1.0000 0.37806  0.73676  0.90939  Biso   1.000  Ne
  He31     1.0000 0.40186  0.71558  0.89796  Biso   1.000  He
  He32     1.0000 0.41214  0.69835  0.92173  Biso   1.000  He
  Ne32     1.0000 0.43450  0.67505  0.91304  Biso   1.000  Ne
  Ne33     1.0000 0.81322  0.50418  0.01172  Biso   1.000  Ne
  He33     1.0000 0.82169  0.48188  0.03372  Biso   1.000  He
  He34     1.0000 0.85325  0.48489  0.04597  Biso   1.000  He
  Ne34     1.0000 0.85983  0.45892  0.06647  Biso   1.000  Ne
  Ne35     1.0000 0.43967  0.58277  0.18955  Biso   1.000  Ne
  He35     1.0000 0.43521  0.61223  0.20896  Biso   1.000  He
  He36     1.0000 0.40820  0.63245  0.20386  Biso   1.000  He
  Ne36     1.0000 0.40752  0.66023  0.22294  Biso   1.000  Ne
  Ne37     1.0000 0.58765  0.23774  0.94445  Biso   1.000  Ne
  He37     1.0000 0.57662  0.25968  0.92120  Biso   1.000  He
  He38     1.0000 0.59726  0.26519  0.89333  Biso   1.000  He
  Ne38     1.0000 0.58834  0.28991  0.87366  Biso   1.000  Ne
  Ne39     1.0000 0.50018  0.30588  0.37933  Biso   1.000  Ne
  He39     1.0000 0.52445  0.28738  0.36318  Biso   1.000  He
  He40     1.0000 0.55558  0.29559  0.36976  Biso   1.000  He
  Ne40     1.0000 0.57511  0.28436  0.34655  Biso   1.000  Ne
  Ne41     1.0000 0.61117  0.09596  0.46632  Biso   1.000  Ne
  He41     1.0000 0.60291  0.12559  0.45344  Biso   1.000  He
  He42     1.0000 0.63091  0.14280  0.44823  Biso   1.000  He
  Ne42     1.0000 0.62875  0.16751  0.42950  Biso   1.000  Ne
  Ne43     1.0000 0.84174  0.62585  0.29243  Biso   1.000  Ne
  He43     1.0000 0.85263  0.62828  0.32088  Biso   1.000  He
  He44     1.0000 0.84667  0.65780  0.33594  Biso   1.000  He
  Ne44     1.0000 0.86805  0.68118  0.33604  Biso   1.000  Ne
  Ne45     1.0000 0.92715  0.67995  0.44274  Biso   1.000  Ne
  He45     1.0000 0.91332  0.66219  0.41885  Biso   1.000  He
  He46     1.0000 0.93784  0.64590  0.39923  Biso   1.000  He
  Ne46     1.0000 0.92672  0.62973  0.37501  Biso   1.000  Ne
  Ne47     1.0000 0.60209  0.38507  0.11589  Biso   1.000  Ne
  He47     1.0000 0.59572  0.39599  0.14841  Biso   1.000  He
  He48     1.0000 0.61915  0.38603  0.17069  Biso   1.000  He
  Ne48     1.0000 0.61180  0.39336  0.20190  Biso   1.000  Ne
  Ne49     1.0000 0.37794  0.87721  0.66610  Biso   1.000  Ne
  He49     1.0000 0.38303  0.89125  0.69900  Biso   1.000  He
  He50     1.0000 0.40099  0.91857  0.70309  Biso   1.000  He
  Ne50     1.0000 0.40456  0.92963  0.73748  Biso   1.000  Ne
  Ne51     1.0000 0.65880  0.87656  0.70415  Biso   1.000  Ne
  He51     1.0000 0.66948  0.88960  0.67727  Biso   1.000  He
  He52     1.0000 0.67534  0.86786  0.64982  Biso   1.000  He
  Ne52     1.0000 0.68950  0.88300  0.62428  Biso   1.000  Ne
  Ne53     1.0000 0.81374  0.49423  0.12808  Biso   1.000  Ne
  He53     1.0000 0.81087  0.52035  0.11007  Biso   1.000  He
  He54     1.0000 0.78024  0.52673  0.10070  Biso   1.000  He
  Ne54     1.0000 0.77500  0.55493  0.08397  Biso   1.000  Ne
  Ne55     1.0000 0.42268  0.49443  0.73143  Biso   1.000  Ne
  He55     1.0000 0.42974  0.50528  0.76175  Biso   1.000  He
  He56     1.0000 0.40924  0.52895  0.77409  Biso   1.000  He
  Ne56     1.0000 0.41706  0.54016  0.80252  Biso   1.000  Ne
  Ne57     1.0000 0.07844  0.84047  0.79507  Biso   1.000  Ne
  He57     1.0000 0.08144  0.87297  0.80387  Biso   1.000  He
  He58     1.0000 0.08211  0.87853  0.83625  Biso   1.000  He
  Ne58     1.0000 0.08715  0.91066  0.84191  Biso   1.000  Ne
  Ne59     1.0000 0.59627  0.81344  0.40568  Biso   1.000  Ne
  He59     1.0000 0.59291  0.80335  0.37212  Biso   1.000  He
  He60     1.0000 0.59612  0.77077  0.36581  Biso   1.000  He
  Ne60     1.0000 0.59440  0.76599  0.33424  Biso   1.000  Ne
  Ne61     1.0000 0.08440  0.64327  0.39247  Biso   1.000  Ne
  He61     1.0000 0.10288  0.66835  0.39896  Biso   1.000  He
  He62     1.0000 0.11328  0.66856  0.42804  Biso   1.000  He
  Ne62     1.0000 0.13562  0.69380  0.43623  Biso   1.000  Ne
  Ne63     1.0000 0.49117  0.43986  0.95583  Biso   1.000  Ne
  He63     1.0000 0.45987  0.43397  0.96030  Biso   1.000  He
  He64     1.0000 0.44382  0.43440  0.93039  Biso   1.000  He
  Ne64     1.0000 0.41163  0.42518  0.93451  Biso   1.000  Ne
  Ne65     1.0000 0.59188  0.00726  0.60518  Biso   1.000  Ne
  He65     1.0000 0.60012  0.03714  0.59198  Biso   1.000  He
  He66     1.0000 0.58411  0.06163  0.60698  Biso   1.000  He
  Ne66     1.0000 0.59168  0.08946  0.59042  Biso   1.000  Ne
  Ne67     1.0000 0.88793  0.39190  0.30094  Biso   1.000  Ne
  He67     1.0000 0.87966  0.36624  0.28037  Biso   1.000  He
  He68     1.0000 0.84851  0.35936  0.27759  Biso   1.000  He
  Ne68     1.0000 0.84453  0.33466  0.25734  Biso   1.000  Ne
  Ne69     1.0000 0.93840  0.55656  0.65222  Biso   1.000  Ne
  He69     1.0000 0.93647  0.57742  0.62670  Biso   1.000  He
  He70     1.0000 0.94033  0.60890  0.63763  Biso   1.000  He
  Ne70     1.0000 0.94329  0.63402  0.61373  Biso   1.000  Ne
  Ne71     1.0000 0.55702  0.80101  0.76867  Biso   1.000  Ne
  He71     1.0000 0.54091  0.80474  0.79720  Biso   1.000  He
  He72     1.0000 0.54141  0.78098  0.81699  Biso   1.000  He
  Ne72     1.0000 0.52885  0.79236  0.84586  Biso   1.000  Ne
  Ne73     1.0000 0.74701  0.59307  0.38019  Biso   1.000  Ne
  He73     1.0000 0.72421  0.59655  0.40533  Biso   1.000  He
  He74     1.0000 0.74087  0.59005  0.43223  Biso   1.000  He
  Ne74     1.0000 0.72020  0.58964  0.46046  Biso   1.000  Ne
  Ne75     1.0000 0.35052  0.32618  0.78651  Biso   1.000  Ne
  He75     1.0000 0.37248  0.30178  0.78741  Biso   1.000  He
  He76     1.0000 0.38178  0.29345  0.75481  Biso   1.000  He
  Ne76     1.0000 0.40135  0.26755  0.75307  Biso   1.000  Ne
  Ne77     1.0000 0.39979  0.65170  0.83873  Biso   1.000  Ne
  He77     1.0000 0.40649  0.62037  0.84409  Biso   1.000  He
  He78     1.0000 0.41592  0.60748  0.87437  Biso   1.000  He
  Ne78     1.0000 0.41889  0.57449  0.87488  Biso   1.000  Ne
  Ne79     1.0000 0.45880  0.09262  0.42044  Biso   1.000  Ne
  He79     1.0000 0.47395  0.06298  0.42345  Biso   1.000  He
  He80     1.0000 0.45379  0.03978  0.43170  Biso   1.000  He
  Ne80     1.0000 0.46634  0.01037  0.43677  Biso   1.000  Ne
  Ne81     1.0000 0.69239  0.60354  0.13510  Biso   1.000  Ne
  He81     1.0000 0.67502  0.57699  0.14633  Biso   1.000  He
  He82     1.0000 0.64708  0.57230  0.13145  Biso   1.000  He
  Ne82     1.0000 0.62907  0.54593  0.13843  Biso   1.000  Ne
  Ne83     1.0000 0.37969  0.07746  0.41389  Biso   1.000  Ne
  He83     1.0000 0.37738  0.06562  0.38221  Biso   1.000  He
  He84     1.0000 0.37278  0.08992  0.35987  Biso   1.000  He
  Ne84     1.0000 0.36778  0.08127  0.32578  Biso   1.000  Ne
  Ne85     1.0000 0.96145  0.38196  0.43318  Biso   1.000  Ne
  He85     1.0000 0.96054  0.40069  0.45819  Biso   1.000  He
  He86     1.0000 0.96704  0.43108  0.45221  Biso   1.000  He
  Ne86     1.0000 0.96475  0.45122  0.47763  Biso   1.000  Ne
  Ne87     1.0000 0.21419  0.55760  0.84708  Biso   1.000  Ne
  He87     1.0000 0.23002  0.56912  0.87246  Biso   1.000  He
  He88     1.0000 0.26194  0.55640  0.87423  Biso   1.000  He
  Ne88     1.0000 0.27695  0.57097  0.89943  Biso   1.000  Ne
  Ne89     1.0000 0.43528  0.07117  0.74594  Biso   1.000  Ne
  He89     1.0000 0.43173  0.07410  0.71276  Biso   1.000  He
  He90     1.0000 0.40209  0.06848  0.70019  Biso   1.000  He
  Ne90     1.0000 0.40214  0.07634  0.66772  Biso   1.000  Ne
  Ne91     1.0000 0.17526  0.07422  0.94805  Biso   1.000  Ne
  He91     1.0000 0.19023  0.08650  0.92071  Biso   1.000  He
  He92     1.0000 0.18057  0.07100  0.89230  Biso   1.000  He
  Ne92     1.0000 0.20120  0.08117  0.86488  Biso   1.000  Ne
  Ne93     1.0000 0.85586  0.56192  0.67093  Biso   1.000  Ne
  He93     1.0000 0.85292  0.56395  0.70204  Biso   1.000  He
  He94     1.0000 0.88034  0.55907  0.71886  Biso   1.000  He
  Ne94     1.0000 0.87559  0.55433  0.75228  Biso   1.000  Ne
  Ne95     1.0000 0.33180  0.83037  0.62152  Biso   1.000  Ne
  He95     1.0000 0.30459  0.82444  0.60653  Biso   1.000  He
  He96     1.0000 0.28298  0.80346  0.62418  Biso   1.000  He
  Ne96     1.0000 0.25151  0.80339  0.61115  Biso   1.000  Ne
  Ne97     1.0000 0.99767  0.79467  0.52456  Biso   1.000  Ne
  He97     1.0000 0.98581  0.78488  0.55866  Biso   1.000  He
  He98     1.0000 0.00987  0.77576  0.57977  Biso   1.000  He
  Ne98     1.0000 0.99756  0.77230  0.61090  Biso   1.000  Ne
  Ne99     1.0000 0.25140  0.85501  0.42706  Biso   1.000  Ne
  He99     1.0000 0.27844  0.86958  0.41274  Biso   1.000  He
  He100    1.0000 0.30009  0.88176  0.43528  Biso   1.000  He
  Ne100    1.0000 0.32913  0.89391  0.42300  Biso   1.000  Ne
  Ne101    1.0000 0.20637  0.67536  0.45698  Biso   1.000  Ne
  He101    1.0000 0.22120  0.70584  0.44569  Biso   1.000  He
  He102    1.0000 0.20343  0.73189  0.45650  Biso   1.000  He
  Ne102    1.0000 0.21092  0.75830  0.44437  Biso   1.000  Ne
  Ne103    1.0000 0.75647  0.36204  0.09931  Biso   1.000  Ne
  He103    1.0000 0.76531  0.37456  0.12926  Biso   1.000  He
  He104    1.0000 0.77894  0.35111  0.14655  Biso   1.000  He
  Ne104    1.0000 0.78912  0.36400  0.17675  Biso   1.000  Ne
  Ne105    1.0000 0.90396  0.36322  0.68388  Biso   1.000  Ne
  He105    1.0000 0.91296  0.34078  0.70585  Biso   1.000  He
  He106    1.0000 0.91112  0.31175  0.69361  Biso   1.000  He
  Ne106    1.0000 0.92351  0.28959  0.71414  Biso   1.000  Ne
  Ne107    1.0000 0.36897  0.17785  0.69469  Biso   1.000  Ne
  He107    1.0000 0.39502  0.19626  0.68884  Biso   1.000  He
  He108    1.0000 0.39435  0.20901  0.65694  Biso   1.000  He
  Ne108    1.0000 0.41730  0.23473  0.65534  Biso   1.000  Ne
  Ne109    1.0000 0.09851  0.63251  0.70770  Biso   1.000  Ne
  He109    1.0000 0.09413  0.59770  0.70541  Biso   1.000  He
  He110    1.0000 0.09651  0.58622  0.67599  Biso   1.000  He
  Ne110    1.0000 0.08523  0.55690  0.67166  Biso   1.000  Ne
  Ne111    1.0000 0.95692  0.89567  0.93211  Biso   1.000  Ne
  He111    1.0000 0.92507  0.90629  0.93439  Biso   1.000  He
  He112    1.0000 0.90931  0.89686  0.90805  Biso   1.000  He
  Ne112    1.0000 0.87666  0.89967  0.91018  Biso   1.000  Ne
  Ne113    1.0000 0.16822  0.13745  0.11375  Biso   1.000  Ne
  He113    1.0000 0.14039  0.15310  0.12819  Biso   1.000  He
  He114    1.0000 0.10633  0.14073  0.12140  Biso   1.000  He
  Ne114    1.0000 0.08471  0.15644  0.14417  Biso   1.000  Ne
  Ne115    1.0000 0.59436  0.70897  0.25291  Biso   1.000  Ne
  He115    1.0000 0.61601  0.69213  0.27117  Biso   1.000  He
  He116    1.0000 0.63719  0.71300  0.28649  Biso   1.000  He
  Ne116    1.0000 0.65644  0.69631  0.31019  Biso   1.000  Ne
  Ne117    1.0000 0.60469  0.28455  0.26236  Biso   1.000  Ne
  He117    1.0000 0.62721  0.27508  0.24131  Biso   1.000  He
  He118    1.0000 0.61574  0.26070  0.21457  Biso   1.000  He
  Ne118    1.0000 0.63789  0.25238  0.19055  Biso   1.000  Ne
  Ne119    1.0000 0.07724  0.44484  0.41685  Biso   1.000  Ne
  He119    1.0000 0.06561  0.42113  0.43833  Biso   1.000  He
  He120    1.0000 0.04959  0.43119  0.46344  Biso   1.000  He
  Ne120    1.0000 0.04318  0.40805  0.48428  Biso   1.000  Ne
  Ne121    1.0000 0.43526  0.32528  0.21279  Biso   1.000  Ne
  He121    1.0000 0.40797  0.31644  0.19509  Biso   1.000  He
  He122    1.0000 0.41233  0.28829  0.18096  Biso   1.000  He
  Ne122    1.0000 0.38663  0.27597  0.16435  Biso   1.000  Ne
  Ne123    1.0000 0.40595  0.69665  0.10861  Biso   1.000  Ne
  He123    1.0000 0.39289  0.66589  0.10925  Biso   1.000  He
  He124    1.0000 0.41462  0.64063  0.10517  Biso   1.000  He
  Ne124    1.0000 0.40192  0.60804  0.10695  Biso   1.000  Ne
  Ne125    1.0000 0.54558  0.12173  0.96086  Biso   1.000  Ne
  He125    1.0000 0.53117  0.15298  0.96325  Biso   1.000  He
  He126    1.0000 0.51850  0.15906  0.93556  Biso   1.000  He
  Ne126    1.0000 0.50385  0.18675  0.93820  Biso   1.000  Ne
  Ne127    1.0000 0.43835  0.04523  0.59346  Biso   1.000  Ne
  He127    1.0000 0.42228  0.03755  0.56473  Biso   1.000  He
  He128    1.0000 0.44045  0.04287  0.53852  Biso   1.000  He
  Ne128    1.0000 0.42709  0.03690  0.50873  Biso   1.000  Ne
  Ne129    1.0000 0.46354  0.52164  0.93017  Biso   1.000  Ne
  He129    1.0000 0.48398  0.54508  0.94170  Biso   1.000  He
  He130    1.0000 0.48063  0.54574  0.97722  Biso   1.000  He
  Ne130    1.0000 0.49429  0.57051  0.99047  Biso   1.000  Ne
  Ne131    1.0000 0.85331  0.05763  0.93064  Biso   1.000  Ne
  He131    1.0000 0.87821  0.07477  0.94464  Biso   1.000  He
  He132    1.0000 0.90724  0.07778  0.92378  Biso   1.000  He
  Ne132    1.0000 0.92794  0.10212  0.93462  Biso   1.000  Ne
  Ne133    1.0000 0.15316  0.23115  0.10861  Biso   1.000  Ne
  He133    1.0000 0.17592  0.23444  0.13131  Biso   1.000  He
  He134    1.0000 0.20219  0.25179  0.12306  Biso   1.000  He
  Ne134    1.0000 0.22818  0.25252  0.14528  Biso   1.000  Ne
  Ne135    1.0000 0.58571  0.40602  0.79797  Biso   1.000  Ne
  He135    1.0000 0.60920  0.39577  0.82110  Biso   1.000  He
  He136    1.0000 0.64093  0.40819  0.81551  Biso   1.000  He
  Ne136    1.0000 0.66175  0.39685  0.83740  Biso   1.000  Ne
  Ne137    1.0000 0.20540  0.22326  0.93351  Biso   1.000  Ne
  He137    1.0000 0.23231  0.20903  0.92395  Biso   1.000  He
  He138    1.0000 0.23263  0.18609  0.90197  Biso   1.000  He
  Ne138    1.0000 0.26112  0.17403  0.89751  Biso   1.000  Ne
  Ne139    1.0000 0.77950  0.55229  0.59591  Biso   1.000  Ne
  He139    1.0000 0.81245  0.55433  0.60269  Biso   1.000  He
  He140    1.0000 0.82992  0.57527  0.58190  Biso   1.000  He
  Ne140    1.0000 0.86206  0.57501  0.58753  Biso   1.000  Ne
  Ne141    1.0000 0.40371  0.91032  0.59768  Biso   1.000  Ne
  He141    1.0000 0.42148  0.93826  0.59745  Biso   1.000  He
  He142    1.0000 0.45353  0.93019  0.58916  Biso   1.000  He
  Ne142    1.0000 0.47705  0.95359  0.58947  Biso   1.000  Ne
  Ne143    1.0000 0.88945  0.21958  0.62151  Biso   1.000  Ne
  He143    1.0000 0.85895  0.21841  0.60916  Biso   1.000  He
  He144    1.0000 0.84758  0.24902  0.60383  Biso   1.000  He
  Ne144    1.0000 0.81663  0.25065  0.59143  Biso   1.000  Ne
  Ne145    1.0000 0.19695  0.59431  0.63169  Biso   1.000  Ne
  He145    1.0000 0.20986  0.60507  0.66024  Biso   1.000  He
  He146    1.0000 0.18881  0.62641  0.67334  Biso   1.000  He
  Ne146    1.0000 0.19520  0.65776  0.66858  Biso   1.000  Ne
  Ne147    1.0000 0.92338  0.01476  0.00310  Biso   1.000  Ne
  He147    1.0000 0.94719  0.03153  0.98993  Biso   1.000  He
  He148    1.0000 0.96366  0.05028  0.00937  Biso   1.000  He
  Ne148    1.0000 0.98919  0.06295  0.99601  Biso   1.000  Ne
  Ne149    1.0000 0.84179  0.20070  0.09183  Biso   1.000  Ne
  He149    1.0000 0.87255  0.19804  0.07810  Biso   1.000  He
  He150    1.0000 0.89842  0.20044  0.09893  Biso   1.000  He
  Ne150    1.0000 0.92707  0.20708  0.08733  Biso   1.000  Ne
  Ne151    1.0000 0.43964  0.95148  0.50214  Biso   1.000  Ne
  He151    1.0000 0.45750  0.92864  0.48829  Biso   1.000  He
  He152    1.0000 0.49158  0.93509  0.48439  Biso   1.000  He
  Ne152    1.0000 0.50966  0.90680  0.47497  Biso   1.000  Ne
  Ne153    1.0000 0.68675  0.89526  0.41013  Biso   1.000  Ne
  He153    1.0000 0.69337  0.89096  0.44236  Biso   1.000  He
  He154    1.0000 0.69644  0.86040  0.45104  Biso   1.000  He
  Ne154    1.0000 0.72971  0.84950  0.44963  Biso   1.000  Ne
  Ne155    1.0000 0.74259  0.52209  0.29664  Biso   1.000  Ne
  He155    1.0000 0.71350  0.52461  0.27988  Biso   1.000  He
  He156    1.0000 0.70207  0.55567  0.27273  Biso   1.000  He
  Ne156    1.0000 0.67246  0.55590  0.25677  Biso   1.000  Ne
  Ne157    1.0000 0.68672  0.76727  0.04804  Biso   1.000  Ne
  He157    1.0000 0.71956  0.77313  0.05342  Biso   1.000  He
  He158    1.0000 0.72730  0.80295  0.06194  Biso   1.000  He
  Ne158    1.0000 0.75888  0.80679  0.07276  Biso   1.000  Ne
  Ne159    1.0000 0.53325  0.46448  0.10017  Biso   1.000  Ne
  He159    1.0000 0.51124  0.45011  0.08168  Biso   1.000  He
  He160    1.0000 0.51892  0.41816  0.07282  Biso   1.000  He
  Ne160    1.0000 0.49975  0.40726  0.04916  Biso   1.000  Ne
  Ne161    1.0000 0.12122  0.44552  0.20793  Biso   1.000  Ne
  He161    1.0000 0.15394  0.43976  0.21822  Biso   1.000  He
  He162    1.0000 0.17562  0.45469  0.19786  Biso   1.000  He
  Ne162    1.0000 0.20733  0.44883  0.20525  Biso   1.000  Ne
  Ne163    1.0000 0.09239  0.34047  0.44254  Biso   1.000  Ne
  He163    1.0000 0.12384  0.34430  0.43628  Biso   1.000  He
  He164    1.0000 0.13258  0.36321  0.41253  Biso   1.000  He
  Ne164    1.0000 0.16551  0.37075  0.41191  Biso   1.000  Ne
  Ne165    1.0000 0.92481  0.57608  0.30374  Biso   1.000  Ne
  He165    1.0000 0.91424  0.54826  0.32069  Biso   1.000  He
  He166    1.0000 0.88828  0.54896  0.34323  Biso   1.000  He
  Ne166    1.0000 0.85674  0.54418  0.33085  Biso   1.000  Ne
  Ne167    1.0000 0.42509  0.91311  0.36184  Biso   1.000  Ne
  He167    1.0000 0.39328  0.91056  0.36771  Biso   1.000  He
  He168    1.0000 0.37645  0.91027  0.33923  Biso   1.000  He
  Ne168    1.0000 0.34681  0.89763  0.33977  Biso   1.000  Ne
  Ne169    1.0000 0.60333  0.90835  0.41639  Biso   1.000  Ne
  He169    1.0000 0.61308  0.91268  0.38594  Biso   1.000  He
  He170    1.0000 0.60020  0.88788  0.36802  Biso   1.000  He
  Ne170    1.0000 0.61125  0.88203  0.33549  Biso   1.000  Ne
  Ne171    1.0000 0.87722  0.33807  0.44987  Biso   1.000  Ne
  He171    1.0000 0.85985  0.35776  0.42888  Biso   1.000  He
  He172    1.0000 0.85139  0.34389  0.40045  Biso   1.000  He
  Ne172    1.0000 0.83216  0.36128  0.37884  Biso   1.000  Ne
  Ne173    1.0000 0.58202  0.93222  0.55986  Biso   1.000  Ne
  He173    1.0000 0.56500  0.91840  0.58603  Biso   1.000  He
  He174    1.0000 0.57935  0.91971  0.61395  Biso   1.000  He
  Ne174    1.0000 0.56342  0.90923  0.64301  Biso   1.000  Ne
  Ne175    1.0000 0.66098  0.58883  0.90098  Biso   1.000  Ne
  He175    1.0000 0.64258  0.57382  0.92331  Biso   1.000  He
  He176    1.0000 0.61445  0.59029  0.93126  Biso   1.000  He
  Ne176    1.0000 0.59547  0.57693  0.95274  Biso   1.000  Ne
  Ne177    1.0000 0.42204  0.80923  0.38588  Biso   1.000  Ne
  He177    1.0000 0.42227  0.81092  0.35171  Biso   1.000  He
  He178    1.0000 0.40183  0.78676  0.33840  Biso   1.000  He
  Ne178    1.0000 0.40746  0.78422  0.30423  Biso   1.000  Ne
  Ne179    1.0000 0.40541  0.66031  0.61702  Biso   1.000  Ne
  He179    1.0000 0.42794  0.67834  0.63025  Biso   1.000  He
  He180    1.0000 0.41831  0.69536  0.65620  Biso   1.000  He
  Ne180    1.0000 0.44157  0.71479  0.66658  Biso   1.000  Ne
  Ne181    1.0000 0.60012  0.05633  0.67837  Biso   1.000  Ne
  He181    1.0000 0.58844  0.06594  0.70781  Biso   1.000  He
  He182    1.0000 0.59104  0.04552  0.73251  Biso   1.000  He
  Ne182    1.0000 0.58007  0.06203  0.75949  Biso   1.000  Ne
  Ne183    1.0000 0.96668  0.96972  0.07027  Biso   1.000  Ne
  He183    1.0000 0.95099  0.94871  0.05264  Biso   1.000  He
  He184    1.0000 0.97105  0.92864  0.03490  Biso   1.000  He
  Ne184    1.0000 0.95943  0.90440  0.01706  Biso   1.000  Ne
  Ne185    1.0000 0.26135  0.61820  0.46061  Biso   1.000  Ne
  He185    1.0000 0.24766  0.59614  0.44112  Biso   1.000  He
  He186    1.0000 0.22537  0.58082  0.45367  Biso   1.000  He
  Ne186    1.0000 0.19528  0.59320  0.45110  Biso   1.000  Ne
  Ne187    1.0000 0.54947  0.53735  0.04534  Biso   1.000  Ne
  He187    1.0000 0.56229  0.56790  0.05310  Biso   1.000  He
  He188    1.0000 0.56220  0.57534  0.08511  Biso   1.000  He
  Ne188    1.0000 0.57516  0.60645  0.08737  Biso   1.000  Ne
  Ne189    1.0000 0.63300  0.56638  0.78438  Biso   1.000  Ne
  He189    1.0000 0.61710  0.57255  0.81454  Biso   1.000  He
  He190    1.0000 0.59018  0.59232  0.81288  Biso   1.000  He
  Ne190    1.0000 0.57589  0.59988  0.84221  Biso   1.000  Ne
  Ne191    1.0000 0.06480  0.57395  0.55292  Biso   1.000  Ne
  He191    1.0000 0.03681  0.57132  0.53183  Biso   1.000  He
  He192    1.0000 0.00602  0.56673  0.54607  Biso   1.000  He
  Ne192    1.0000 0.98088  0.56090  0.52658  Biso   1.000  Ne
  Ne193    1.0000 0.10555  0.75104  0.10965  Biso   1.000  Ne
  He193    1.0000 0.11402  0.77936  0.09928  Biso   1.000  He
  He194    1.0000 0.14420  0.78902  0.11130  Biso   1.000  He
  Ne194    1.0000 0.15762  0.81652  0.09893  Biso   1.000  Ne
  Ne195    1.0000 0.76017  0.06783  0.83566  Biso   1.000  Ne
  He195    1.0000 0.75776  0.05175  0.86658  Biso   1.000  He
  He196    1.0000 0.75987  0.07413  0.89333  Biso   1.000  He
  Ne196    1.0000 0.76668  0.06295  0.92267  Biso   1.000  Ne
  Ne197    1.0000 0.80168  0.49404  0.83213  Biso   1.000  Ne
  He197    1.0000 0.80549  0.47057  0.85458  Biso   1.000  He
  He198    1.0000 0.79580  0.47963  0.88575  Biso   1.000  He
  Ne198    1.0000 0.80239  0.45755  0.90989  Biso   1.000  Ne
  Ne199    1.0000 0.22725  0.35597  0.60322  Biso   1.000  Ne
  He199    1.0000 0.19503  0.36017  0.60346  Biso   1.000  He
  He200    1.0000 0.18535  0.39381  0.60781  Biso   1.000  He
  Ne200    1.0000 0.15369  0.40070  0.60511  Biso   1.000  Ne
  Ne201    1.0000 0.72702  0.20743  0.09517  Biso   1.000  Ne
  He201    1.0000 0.72103  0.17519  0.09186  Biso   1.000  He
  He202    1.0000 0.74563  0.15504  0.08070  Biso   1.000  He
  Ne202    1.0000 0.73406  0.12430  0.07445  Biso   1.000  Ne
  Ne203    1.0000 0.05996  0.01199  0.07743  Biso   1.000  Ne
  He203    1.0000 0.08046  0.02537  0.05482  Biso   1.000  He
  He204    1.0000 0.06132  0.04269  0.02992  Biso   1.000  He
  Ne204    1.0000 0.07811  0.05627  0.00504  Biso   1.000  Ne
  Ne205    1.0000 0.43652  0.67993  0.75787  Biso   1.000  Ne
  He205    1.0000 0.41608  0.70498  0.76795  Biso   1.000  He
  He206    1.0000 0.41928  0.71645  0.79892  Biso   1.000  He
  Ne206    1.0000 0.40013  0.74330  0.80526  Biso   1.000  Ne
  Ne207    1.0000 0.12118  0.57474  0.37547  Biso   1.000  Ne
  He207    1.0000 0.12425  0.57376  0.40864  Biso   1.000  He
  He208    1.0000 0.10274  0.55923  0.42637  Biso   1.000  He
  Ne208    1.0000 0.10639  0.56170  0.46166  Biso   1.000  Ne
  Ne209    1.0000 0.14527  0.11022  0.20840  Biso   1.000  Ne
  He209    1.0000 0.16628  0.09599  0.23287  Biso   1.000  He
  He210    1.0000 0.19281  0.08292  0.21595  Biso   1.000  He
  Ne210    1.0000 0.21417  0.06972  0.23545  Biso   1.000  Ne
  Ne211    1.0000 0.10039  0.28275  0.60818  Biso   1.000  Ne
  He211    1.0000 0.09351  0.31541  0.61425  Biso   1.000  He
  He212    1.0000 0.10464  0.32842  0.64386  Biso   1.000  He
  Ne212    1.0000 0.09174  0.35885  0.64955  Biso   1.000  Ne
  Ne213    1.0000 0.45451  0.74582  0.16947  Biso   1.000  Ne
  He213    1.0000 0.42440  0.75180  0.18416  Biso   1.000  He
  He214    1.0000 0.40090  0.76258  0.16415  Biso   1.000  He
  Ne214    1.0000 0.37392  0.76930  0.18056  Biso   1.000  Ne
  Ne215    1.0000 0.83951  0.78344  0.10158  Biso   1.000  Ne
  He215    1.0000 0.87206  0.79111  0.09848  Biso   1.000  He
  He216    1.0000 0.88243  0.81803  0.11331  Biso   1.000  He
  Ne216    1.0000 0.91622  0.82061  0.11426  Biso   1.000  Ne
  Ne217    1.0000 0.15917  0.04896  0.12844  Biso   1.000  Ne
  He217    1.0000 0.12646  0.04321  0.13852  Biso   1.000  He
  He218    1.0000 0.11380  0.06923  0.15413  Biso   1.000  He
  Ne218    1.0000 0.08197  0.06186  0.16709  Biso   1.000  Ne
  Ne219    1.0000 0.10057  0.62066  0.59739  Biso   1.000  Ne
  He219    1.0000 0.10057  0.65241  0.59085  Biso   1.000  He
  He220    1.0000 0.11611  0.67014  0.61347  Biso   1.000  He
  Ne220    1.0000 0.12766  0.69951  0.60396  Biso   1.000  Ne
  Ne221    1.0000 0.46476  0.55865  0.07682  Biso   1.000  Ne
  He221    1.0000 0.45020  0.54001  0.05541  Biso   1.000  He
  He222    1.0000 0.42675  0.51873  0.06410  Biso   1.000  He
  Ne222    1.0000 0.42017  0.49927  0.03843  Biso   1.000  Ne
  Ne223    1.0000 0.46607  0.12392  0.25226  Biso   1.000  Ne
  He223    1.0000 0.44638  0.13024  0.27726  Biso   1.000  He
  He224    1.0000 0.45570  0.15570  0.29600  Biso   1.000  He
  Ne224    1.0000 0.43734  0.15926  0.32836  Biso   1.000  Ne
  Ne225    1.0000 0.77472  0.36901  0.44464  Biso   1.000  Ne
  He225    1.0000 0.76741  0.40338  0.44626  Biso   1.000  He
  He226    1.0000 0.73785  0.40846  0.45867  Biso   1.000  He
  Ne226    1.0000 0.72905  0.44054  0.46060  Biso   1.000  Ne
  Ne227    1.0000 0.38280  0.55325  0.95152  Biso   1.000  Ne
  He227    1.0000 0.35887  0.57400  0.94000  Biso   1.000  He
  He228    1.0000 0.36366  0.60808  0.94580  Biso   1.000  He
  Ne228    1.0000 0.34175  0.62948  0.93405  Biso   1.000  Ne
  Ne229    1.0000 0.07944  0.77809  0.63650  Biso   1.000  Ne
  He229    1.0000 0.07659  0.79430  0.66607  Biso   1.000  He
  He230    1.0000 0.05095  0.78410  0.68706  Biso   1.000  He
  Ne230    1.0000 0.05100  0.80078  0.71685  Biso   1.000  Ne
  Ne231    1.0000 0.20015  0.63800  0.27163  Biso   1.000  Ne
  He231    1.0000 0.16874  0.62340  0.25975  Biso   1.000  He
  He232    1.0000 0.14959  0.61385  0.28256  Biso   1.000  He
  Ne232    1.0000 0.12339  0.60193  0.27233  Biso   1.000  Ne
  Ne233    1.0000 0.60226  0.66343  0.13371  Biso   1.000  Ne
  He233    1.0000 0.58787  0.69375  0.13261  Biso   1.000  He
  He234    1.0000 0.57984  0.70836  0.10366  Biso   1.000  He
  Ne234    1.0000 0.57023  0.74218  0.10556  Biso   1.000  Ne
  Ne235    1.0000 0.80731  0.56289  0.26581  Biso   1.000  Ne
  He235    1.0000 0.80036  0.57376  0.23456  Biso   1.000  He
  He236    1.0000 0.77241  0.56261  0.22298  Biso   1.000  He
  Ne236    1.0000 0.76585  0.57194  0.19102  Biso   1.000  Ne
  Ne237    1.0000 0.19727  0.36651  0.77490  Biso   1.000  Ne
  He237    1.0000 0.19596  0.37401  0.74469  Biso   1.000  He
  He238    1.0000 0.16557  0.38151  0.73075  Biso   1.000  He
  Ne238    1.0000 0.16843  0.39317  0.69989  Biso   1.000  Ne
  Ne239    1.0000 0.80007  0.68801  0.09887  Biso   1.000  Ne
  He239    1.0000 0.76956  0.68175  0.10566  Biso   1.000  He
  He240    1.0000 0.75117  0.70839  0.09513  Biso   1.000  He
  Ne240    1.0000 0.71977  0.70360  0.09277  Biso   1.000  Ne
  Ne241    1.0000 0.70175  0.18721  0.62183  Biso   1.000  Ne
  He241    1.0000 0.67169  0.17611  0.62978  Biso   1.000  He
  He242    1.0000 0.64490  0.19082  0.61878  Biso   1.000  He
  Ne242    1.0000 0.61810  0.16857  0.62063  Biso   1.000  Ne
  Ne243    1.0000 0.90921  0.14648  0.19747  Biso   1.000  Ne
  He243    1.0000 0.90074  0.11717  0.21599  Biso   1.000  He
  He244    1.0000 0.92497  0.09664  0.22077  Biso   1.000  He
  Ne244    1.0000 0.92121  0.06813  0.20495  Biso   1.000  Ne
  Ne245    1.0000 0.63007  0.14246  0.71700  Biso   1.000  Ne
  He245    1.0000 0.61111  0.17047  0.72248  Biso   1.000  He
  He246    1.0000 0.60328  0.17950  0.75388  Biso   1.000  He
  Ne246    1.0000 0.57178  0.18870  0.75860  Biso   1.000  Ne
  Ne247    1.0000 0.43556  0.38050  0.83194  Biso   1.000  Ne
  He247    1.0000 0.40307  0.38371  0.83424  Biso   1.000  He
  He248    1.0000 0.38904  0.36502  0.85772  Biso   1.000  He
  Ne248    1.0000 0.35533  0.36996  0.86236  Biso   1.000  Ne
  Ne249    1.0000 0.99962  0.98889  0.95126  Biso   1.000  Ne
  He249    1.0000 0.02468  0.98018  0.97227  Biso   1.000  He
  He250    1.0000 0.03183  0.94646  0.97249  Biso   1.000  He
  Ne250    1.0000 0.05025  0.93837  0.99763  Biso   1.000  Ne
  Ne251    1.0000 0.95053  0.36940  0.33917  Biso   1.000  Ne
  He251    1.0000 0.93072  0.34595  0.35128  Biso   1.000  He
  He252    1.0000 0.94213  0.31784  0.33952  Biso   1.000  He
  Ne252    1.0000 0.92658  0.28893  0.35049  Biso   1.000  Ne
  Ne253    1.0000 0.61310  0.12542  0.36674  Biso   1.000  Ne
  He253    1.0000 0.62395  0.09548  0.37061  Biso   1.000  He
  He254    1.0000 0.64705  0.08217  0.34873  Biso   1.000  He
  Ne254    1.0000 0.66185  0.05313  0.35522  Biso   1.000  Ne
  Ne255    1.0000 0.89328  0.79085  0.92398  Biso   1.000  Ne
  He255    1.0000 0.91563  0.80686  0.90442  Biso   1.000  He
  He256    1.0000 0.90801  0.80768  0.87323  Biso   1.000  He
  Ne256    1.0000 0.92786  0.82547  0.85567  Biso   1.000  Ne
  Ne257    1.0000 0.37529  0.90961  0.26479  Biso   1.000  Ne
  He257    1.0000 0.40721  0.90370  0.26082  Biso   1.000  He
  He258    1.0000 0.41903  0.87218  0.26365  Biso   1.000  He
  Ne258    1.0000 0.45028  0.86982  0.27329  Biso   1.000  Ne
  Ne259    1.0000 0.59488  0.80246  0.67543  Biso   1.000  Ne
  He259    1.0000 0.60471  0.79080  0.64367  Biso   1.000  He
  He260    1.0000 0.62751  0.80978  0.62871  Biso   1.000  He
  Ne260    1.0000 0.64196  0.79503  0.60118  Biso   1.000  Ne
  Ne261    1.0000 0.12020  0.12786  0.94701  Biso   1.000  Ne
  He261    1.0000 0.09468  0.10892  0.94489  Biso   1.000  He
  He262    1.0000 0.09126  0.09619  0.91478  Biso   1.000  He
  Ne262    1.0000 0.06412  0.07716  0.91271  Biso   1.000  Ne
  Ne263    1.0000 0.55430  0.33805  0.71255  Biso   1.000  Ne
  He263    1.0000 0.56361  0.34527  0.74305  Biso   1.000  He
  He264    1.0000 0.58353  0.32311  0.75397  Biso   1.000  He
  Ne264    1.0000 0.59452  0.32467  0.78422  Biso   1.000  Ne
  Ne265    1.0000 0.20846  0.87680  0.08032  Biso   1.000  Ne
  He265    1.0000 0.20377  0.87991  0.11261  Biso   1.000  He
  He266    1.0000 0.21878  0.90209  0.12898  Biso   1.000  He
  Ne266    1.0000 0.21029  0.90593  0.16138  Biso   1.000  Ne
  Ne267    1.0000 0.70942  0.33998  0.22140  Biso   1.000  Ne
  He267    1.0000 0.69942  0.35370  0.19399  Biso   1.000  He
  He268    1.0000 0.69924  0.38659  0.19545  Biso   1.000  He
  Ne268    1.0000 0.69236  0.39842  0.16527  Biso   1.000  Ne
  Ne269    1.0000 0.90175  0.55121  0.42858  Biso   1.000  Ne
  He269    1.0000 0.87216  0.53542  0.42462  Biso   1.000  He
  He270    1.0000 0.84577  0.55547  0.42450  Biso   1.000  He
  Ne270    1.0000 0.81682  0.53929  0.41750  Biso   1.000  Ne
  Ne271    1.0000 0.13051  0.86677  0.91632  Biso   1.000  Ne
  He271    1.0000 0.16660  0.87006  0.91697  Biso   1.000  He
  He272    1.0000 0.17840  0.90223  0.91715  Biso   1.000  He
  Ne272    1.0000 0.20918  0.90421  0.91450  Biso   1.000  Ne
  Ne273    1.0000 0.03536  0.42434  0.59546  Biso   1.000  Ne
  He273    1.0000 0.04982  0.43233  0.56851  Biso   1.000  He
  He274    1.0000 0.06877  0.46242  0.56835  Biso   1.000  He
  Ne274    1.0000 0.08471  0.47109  0.53885  Biso   1.000  Ne
  Ne275    1.0000 0.33942  0.16745  0.37772  Biso   1.000  Ne
  He275    1.0000 0.36963  0.17112  0.38541  Biso   1.000  He
  He276    1.0000 0.37643  0.16322  0.42008  Biso   1.000  He
  Ne276    1.0000 0.40737  0.16972  0.43010  Biso   1.000  Ne
  Ne277    1.0000 0.08465  0.93223  0.10303  Biso   1.000  Ne
  He277    1.0000 0.08996  0.90075  0.11189  Biso   1.000  He
  He278    1.0000 0.11935  0.89429  0.12105  Biso   1.000  He
  Ne278    1.0000 0.11964  0.86568  0.13911  Biso   1.000  Ne
  Ne279    1.0000 0.54972  0.19836  0.13780  Biso   1.000  Ne
  He279    1.0000 0.51896  0.18874  0.14869  Biso   1.000  He
  He280    1.0000 0.51199  0.15596  0.14581  Biso   1.000  He
  Ne280    1.0000 0.48348  0.14534  0.15580  Biso   1.000  Ne
