data_image0
_cell_length_a       46.7314
_cell_length_b       46.8711
_cell_length_c       46.5495
_cell_angle_alpha    90
_cell_angle_beta     90
_cell_angle_gamma    90

_symmetry_space_group_name_H-M    "P 1"
_symmetry_int_tables_number       1

loop_
  _symmetry_equiv_pos_as_xyz
  'x, y, z'

loop_
  _atom_site_label
  _atom_site_occupancy
  _atom_site_fract_x
  _atom_site_fract_y
  _atom_site_fract_z
  _atom_site_thermal_displace_type
  _atom_site_B_iso_or_equiv
  _atom_site_type_symbol
  Ne1      1.0000 0.12326  0.27525  0.44736  Biso   1.000  Ne
  He1      1.0000 0.11124  0.29925  0.42785  Biso   1.000  He
  He2      1.0000 0.10739  0.28875  0.39565  Biso   1.000  He
  Ne2      1.0000 0.10083  0.31357  0.37511  Biso   1.000  Ne
  Ne3      1.0000 0.13363  0.04925  0.08889  Biso   1.000  Ne
  He3      1.0000 0.14391  0.08081  0.09159  Biso   1.000  He
  He4      1.0000 0.17359  0.08477  0.10656  Biso   1.000  He
  Ne4      1.0000 0.18180  0.11758  0.11116  Biso   1.000  Ne
  Ne5      1.0000 0.40440  0.89323  0.43747  Biso   1.000  Ne
  He5      1.0000 0.37307  0.88256  0.43722  Biso   1.000  He
  He6      1.0000 0.35368  0.90893  0.42306  Biso   1.000  He
  Ne6      1.0000 0.32254  0.89999  0.41485  Biso   1.000  Ne
  Ne7      1.0000 0.40972  0.57779  0.07838  Biso   1.000  Ne
  He7      1.0000 0.40951  0.54831  0.06233  Biso   1.000  He
  He8      1.0000 0.43508  0.54312  0.04154  Biso   1.000  He
  Ne8      1.0000 0.43908  0.51367  0.02755  Biso   1.000  Ne
  Ne9      1.0000 0.88630  0.07885  0.25391  Biso   1.000  Ne
  He9      1.0000 0.90862  0.06199  0.23735  Biso   1.000  He
  He10     1.0000 0.89504  0.04335  0.21252  Biso   1.000  He
  Ne10     1.0000 0.90202  0.05702  0.18301  Biso   1.000  Ne
  Ne11     1.0000 0.89200  0.56963  0.44628  Biso   1.000  Ne
  He11     1.0000 0.89444  0.60066  0.44423  Biso   1.000  He
  He12     1.0000 0.92541  0.60870  0.43250  Biso   1.000  He
  Ne12     1.0000 0.92980  0.63588  0.41861  Biso   1.000  Ne
  Ne13     1.0000 0.94043  0.19972  0.11757  Biso   1.000  Ne
  He13     1.0000 0.92366  0.17245  0.11996  Biso   1.000  He
  He14     1.0000 0.91485  0.16537  0.15161  Biso   1.000  He
  Ne14     1.0000 0.89929  0.13695  0.15784  Biso   1.000  Ne
  Ne15     1.0000 0.84625  0.86511  0.09720  Biso   1.000  Ne
  He15     1.0000 0.88090  0.87191  0.10111  Biso   1.000  He
  He16     1.0000 0.89708  0.84577  0.08425  Biso   1.000  He
  Ne16     1.0000 0.92803  0.84860  0.08753  Biso   1.000  Ne
  Ne17     1.0000 0.08228  0.52453  0.60016  Biso   1.000  Ne
  He17     1.0000 0.08369  0.52584  0.56797  Biso   1.000  He
  He18     1.0000 0.08319  0.49489  0.55512  Biso   1.000  He
  Ne18     1.0000 0.08688  0.49491  0.52318  Biso   1.000  Ne
  Ne19     1.0000 0.59200  0.87856  0.63627  Biso   1.000  Ne
  He19     1.0000 0.58444  0.90438  0.61595  Biso   1.000  He
  He20     1.0000 0.60274  0.90848  0.58683  Biso   1.000  He
  Ne20     1.0000 0.58938  0.93078  0.56725  Biso   1.000  Ne
  Ne21     1.0000 0.60679  0.61179  0.93382  Biso   1.000  Ne
  He21     1.0000 0.59131  0.63290  0.91499  Biso   1.000  He
  He22     1.0000 0.60159  0.66415  0.91717  Biso   1.000  He
  Ne22     1.0000 0.58491  0.68507  0.89803  Biso   1.000  Ne
  Ne23     1.0000 0.67227  0.06589  0.60452  Biso   1.000  Ne
  He23     1.0000 0.64021  0.06735  0.61052  Biso   1.000  He
  He24     1.0000 0.62595  0.08989  0.59163  Biso   1.000  He
  Ne24     1.0000 0.59365  0.09232  0.59945  Biso   1.000  Ne
  Ne25     1.0000 0.92426  0.40407  0.63960  Biso   1.000  Ne
  He25     1.0000 0.94040  0.38887  0.66241  Biso   1.000  He
  He26     1.0000 0.95302  0.36157  0.64978  Biso   1.000  He
  Ne26     1.0000 0.94047  0.33346  0.65998  Biso   1.000  Ne
  Ne27     1.0000 0.11273  0.24554  0.96256  Biso   1.000  Ne
  He27     1.0000 0.12236  0.21170  0.96794  Biso   1.000  He
  He28     1.0000 0.15013  0.20361  0.95075  Biso   1.000  He
  Ne28     1.0000 0.15922  0.17025  0.95307  Biso   1.000  Ne
  Ne29     1.0000 0.10741  0.92150  0.07236  Biso   1.000  Ne
  He29     1.0000 0.11384  0.90437  0.10230  Biso   1.000  He
  He30     1.0000 0.08931  0.88363  0.10971  Biso   1.000  He
  Ne30     1.0000 0.08964  0.86907  0.13811  Biso   1.000  Ne
  Ne31     1.0000 0.08964  0.57722  0.34937  Biso   1.000  Ne
  He31     1.0000 0.09129  0.58917  0.37913  Biso   1.000  He
  He32     1.0000 0.08384  0.57117  0.40525  Biso   1.000  He
  Ne32     1.0000 0.09005  0.58913  0.43270  Biso   1.000  Ne
  Ne33     1.0000 0.41797  0.29503  0.94915  Biso   1.000  Ne
  He33     1.0000 0.42340  0.32617  0.94353  Biso   1.000  He
  He34     1.0000 0.43757  0.33202  0.91552  Biso   1.000  He
  Ne34     1.0000 0.43731  0.36351  0.90758  Biso   1.000  Ne
  Ne35     1.0000 0.42627  0.40791  0.18943  Biso   1.000  Ne
  He35     1.0000 0.40844  0.39245  0.16511  Biso   1.000  He
  He36     1.0000 0.38461  0.41005  0.15383  Biso   1.000  He
  Ne36     1.0000 0.36778  0.39759  0.12804  Biso   1.000  Ne
  Ne37     1.0000 0.20943  0.77958  0.91457  Biso   1.000  Ne
  He37     1.0000 0.20295  0.78093  0.87941  Biso   1.000  He
  He38     1.0000 0.22845  0.77467  0.86285  Biso   1.000  He
  Ne38     1.0000 0.22923  0.74413  0.84908  Biso   1.000  Ne
  Ne39     1.0000 0.17528  0.06504  0.93885  Biso   1.000  Ne
  He39     1.0000 0.15212  0.04287  0.92710  Biso   1.000  He
  He40     1.0000 0.12357  0.05515  0.92119  Biso   1.000  He
  Ne40     1.0000 0.10042  0.03522  0.91925  Biso   1.000  Ne
  Ne41     1.0000 0.35137  0.53836  0.87403  Biso   1.000  Ne
  He41     1.0000 0.38196  0.54125  0.88603  Biso   1.000  He
  He42     1.0000 0.38366  0.54077  0.91993  Biso   1.000  He
  Ne42     1.0000 0.41386  0.54502  0.93230  Biso   1.000  Ne
  Ne43     1.0000 0.95256  0.09882  0.91833  Biso   1.000  Ne
  He43     1.0000 0.96682  0.06986  0.92324  Biso   1.000  He
  He44     1.0000 0.94693  0.04864  0.93689  Biso   1.000  He
  Ne44     1.0000 0.95929  0.01739  0.94148  Biso   1.000  Ne
  Ne45     1.0000 0.95033  0.08139  0.09529  Biso   1.000  Ne
  He45     1.0000 0.92340  0.07084  0.07730  Biso   1.000  He
  He46     1.0000 0.90438  0.04668  0.09086  Biso   1.000  He
  Ne46     1.0000 0.87893  0.05396  0.10914  Biso   1.000  Ne
  Ne47     1.0000 0.11997  0.41188  0.61767  Biso   1.000  Ne
  He47     1.0000 0.15145  0.40632  0.62306  Biso   1.000  He
  He48     1.0000 0.16854  0.40589  0.59558  Biso   1.000  He
  Ne48     1.0000 0.20165  0.39987  0.59731  Biso   1.000  Ne
  Ne49     1.0000 0.34575  0.37144  0.84820  Biso   1.000  Ne
  He49     1.0000 0.37551  0.36235  0.84141  Biso   1.000  He
  He50     1.0000 0.38303  0.36129  0.80988  Biso   1.000  He
  Ne50     1.0000 0.41344  0.34594  0.80475  Biso   1.000  Ne
  Ne51     1.0000 0.67575  0.55184  0.89545  Biso   1.000  Ne
  He51     1.0000 0.64991  0.54501  0.87430  Biso   1.000  He
  He52     1.0000 0.62280  0.53368  0.88977  Biso   1.000  He
  Ne52     1.0000 0.59871  0.52241  0.86899  Biso   1.000  Ne
  Ne53     1.0000 0.18675  0.62173  0.58226  Biso   1.000  Ne
  He53     1.0000 0.15793  0.60713  0.58916  Biso   1.000  He
  He54     1.0000 0.12998  0.62742  0.58973  Biso   1.000  He
  Ne54     1.0000 0.10045  0.61432  0.58944  Biso   1.000  Ne
  Ne55     1.0000 0.23620  0.86877  0.20260  Biso   1.000  Ne
  He55     1.0000 0.20972  0.87942  0.18848  Biso   1.000  He
  He56     1.0000 0.20506  0.87188  0.15537  Biso   1.000  He
  Ne56     1.0000 0.17737  0.88489  0.14453  Biso   1.000  Ne
  Ne57     1.0000 0.66874  0.61228  0.08155  Biso   1.000  Ne
  He57     1.0000 0.64821  0.62630  0.10341  Biso   1.000  He
  He58     1.0000 0.62958  0.60331  0.12246  Biso   1.000  He
  Ne58     1.0000 0.61051  0.61473  0.14843  Biso   1.000  Ne
  Ne59     1.0000 0.91982  0.61330  0.59006  Biso   1.000  Ne
  He59     1.0000 0.92954  0.59353  0.61393  Biso   1.000  He
  He60     1.0000 0.92982  0.60960  0.64342  Biso   1.000  He
  Ne60     1.0000 0.93255  0.58901  0.66981  Biso   1.000  Ne
