data_image0
_cell_length_a       47.4698
_cell_length_b       47.0867
_cell_length_c       46.5409
_cell_angle_alpha    90
_cell_angle_beta     90
_cell_angle_gamma    90

_symmetry_space_group_name_H-M    "P 1"
_symmetry_int_tables_number       1

loop_
  _symmetry_equiv_pos_as_xyz
  'x, y, z'

loop_
  _atom_site_label
  _atom_site_occupancy
  _atom_site_fract_x
  _atom_site_fract_y
  _atom_site_fract_z
  _atom_site_thermal_displace_type
  _atom_site_B_iso_or_equiv
  _atom_site_type_symbol
  Ne1      1.0000 0.56901  0.58067  0.85320  Biso   1.000  Ne
  He1      1.0000 0.59544  0.58382  0.87586  Biso   1.000  He
  He2      1.0000 0.59762  0.56080  0.90064  Biso   1.000  He
  Ne2      1.0000 0.62360  0.56568  0.91948  Biso   1.000  Ne
  Ne3      1.0000 0.08928  0.56721  0.62327  Biso   1.000  Ne
  He3      1.0000 0.12276  0.56558  0.62318  Biso   1.000  He
  He4      1.0000 0.13984  0.56173  0.59373  Biso   1.000  He
  Ne4      1.0000 0.17328  0.55971  0.59572  Biso   1.000  Ne
  Ne5      1.0000 0.58462  0.28485  0.16643  Biso   1.000  Ne
  He5      1.0000 0.58562  0.26908  0.13851  Biso   1.000  He
  He6      1.0000 0.60772  0.24506  0.13970  Biso   1.000  He
  Ne6      1.0000 0.61232  0.23044  0.11058  Biso   1.000  Ne
  Ne7      1.0000 0.88920  0.78228  0.28019  Biso   1.000  Ne
  He7      1.0000 0.88669  0.81118  0.26005  Biso   1.000  He
  He8      1.0000 0.90683  0.83588  0.27104  Biso   1.000  He
  Ne8      1.0000 0.90706  0.86362  0.25450  Biso   1.000  Ne
  Ne9      1.0000 0.54972  0.06612  0.62603  Biso   1.000  Ne
  He9      1.0000 0.55302  0.09366  0.64426  Biso   1.000  He
  He10     1.0000 0.58089  0.11297  0.63439  Biso   1.000  He
  Ne10     1.0000 0.57504  0.13937  0.61120  Biso   1.000  Ne
  Ne11     1.0000 0.88694  0.06506  0.14760  Biso   1.000  Ne
  He11     1.0000 0.89071  0.09629  0.14594  Biso   1.000  He
  He12     1.0000 0.88013  0.10968  0.11757  Biso   1.000  He
  Ne12     1.0000 0.88747  0.14219  0.11349  Biso   1.000  Ne
  Ne13     1.0000 0.90770  0.65574  0.75255  Biso   1.000  Ne
  He13     1.0000 0.91166  0.63239  0.73077  Biso   1.000  He
  He14     1.0000 0.89810  0.63592  0.69955  Biso   1.000  He
  Ne14     1.0000 0.90342  0.60912  0.68027  Biso   1.000  Ne
  Ne15     1.0000 0.06322  0.09750  0.11183  Biso   1.000  Ne
  He15     1.0000 0.06769  0.10521  0.14532  Biso   1.000  He
  He16     1.0000 0.06917  0.13987  0.14772  Biso   1.000  He
  Ne16     1.0000 0.10178  0.15166  0.15371  Biso   1.000  Ne
  Ne17     1.0000 0.22179  0.27069  0.63311  Biso   1.000  Ne
  He17     1.0000 0.19877  0.29033  0.64671  Biso   1.000  He
  He18     1.0000 0.16851  0.27330  0.64975  Biso   1.000  He
  Ne18     1.0000 0.14405  0.29387  0.66575  Biso   1.000  Ne
  Ne19     1.0000 0.41156  0.54580  0.09006  Biso   1.000  Ne
  He19     1.0000 0.40949  0.53639  0.12084  Biso   1.000  He
  He20     1.0000 0.40029  0.56187  0.13830  Biso   1.000  He
  Ne20     1.0000 0.39149  0.55317  0.17001  Biso   1.000  Ne
