data_image0
_cell_length_a       46.7674
_cell_length_b       47.5201
_cell_length_c       46.5382
_cell_angle_alpha    90
_cell_angle_beta     90
_cell_angle_gamma    90

_symmetry_space_group_name_H-M    "P 1"
_symmetry_int_tables_number       1

loop_
  _symmetry_equiv_pos_as_xyz
  'x, y, z'

loop_
  _atom_site_label
  _atom_site_occupancy
  _atom_site_fract_x
  _atom_site_fract_y
  _atom_site_fract_z
  _atom_site_thermal_displace_type
  _atom_site_B_iso_or_equiv
  _atom_site_type_symbol
  Ne1      1.0000 0.58205  0.79668  0.04839  Biso   1.000  Ne
  He1      1.0000 0.60019  0.76945  0.05593  Biso   1.000  He
  He2      1.0000 0.60126  0.76230  0.08747  Biso   1.000  He
  Ne2      1.0000 0.61953  0.73730  0.09781  Biso   1.000  Ne
  Ne3      1.0000 0.76914  0.06123  0.14880  Biso   1.000  Ne
  He3      1.0000 0.74045  0.05322  0.13185  Biso   1.000  He
  He4      1.0000 0.73905  0.05543  0.09776  Biso   1.000  He
  Ne4      1.0000 0.70971  0.05184  0.08474  Biso   1.000  Ne
  Ne5      1.0000 0.24753  0.40204  0.53784  Biso   1.000  Ne
  He5      1.0000 0.23428  0.41015  0.56605  Biso   1.000  He
  He6      1.0000 0.19899  0.41054  0.56737  Biso   1.000  He
  Ne6      1.0000 0.18860  0.42041  0.59809  Biso   1.000  Ne
  Ne7      1.0000 0.94009  0.64095  0.58246  Biso   1.000  Ne
  He7      1.0000 0.92269  0.63375  0.60885  Biso   1.000  He
  He8      1.0000 0.93806  0.61362  0.62723  Biso   1.000  He
  Ne8      1.0000 0.92087  0.60000  0.65321  Biso   1.000  Ne
  Ne9      1.0000 0.41117  0.07863  0.43625  Biso   1.000  Ne
  He9      1.0000 0.38401  0.09364  0.42325  Biso   1.000  He
  He10     1.0000 0.37923  0.09020  0.39007  Biso   1.000  He
  Ne10     1.0000 0.35417  0.10751  0.37741  Biso   1.000  Ne
  Ne11     1.0000 0.92875  0.91059  0.19798  Biso   1.000  Ne
  He11     1.0000 0.92619  0.88553  0.18224  Biso   1.000  He
  He12     1.0000 0.92748  0.89062  0.14816  Biso   1.000  He
  Ne12     1.0000 0.92431  0.86243  0.13018  Biso   1.000  Ne
  Ne13     1.0000 0.62313  0.92875  0.41682  Biso   1.000  Ne
  He13     1.0000 0.63570  0.92969  0.38481  Biso   1.000  He
  He14     1.0000 0.66826  0.92443  0.38389  Biso   1.000  He
  Ne14     1.0000 0.68280  0.92070  0.35385  Biso   1.000  Ne
  Ne15     1.0000 0.69690  0.59824  0.91201  Biso   1.000  Ne
  He15     1.0000 0.66730  0.59079  0.89874  Biso   1.000  He
  He16     1.0000 0.63927  0.59694  0.91587  Biso   1.000  He
  Ne16     1.0000 0.61299  0.59588  0.89803  Biso   1.000  Ne
  Ne17     1.0000 0.43844  0.35133  0.91391  Biso   1.000  Ne
  He17     1.0000 0.45064  0.38028  0.90441  Biso   1.000  He
  He18     1.0000 0.43064  0.40624  0.90229  Biso   1.000  He
  Ne18     1.0000 0.44336  0.43716  0.89908  Biso   1.000  Ne
  Ne19     1.0000 0.37819  0.43501  0.84568  Biso   1.000  Ne
  He19     1.0000 0.39613  0.40920  0.83130  Biso   1.000  He
  He20     1.0000 0.42640  0.41584  0.81896  Biso   1.000  He
  Ne20     1.0000 0.44078  0.38912  0.80830  Biso   1.000  Ne
  Ne21     1.0000 0.12017  0.58975  0.41451  Biso   1.000  Ne
  He21     1.0000 0.08941  0.58356  0.40391  Biso   1.000  He
  He22     1.0000 0.07299  0.56298  0.42428  Biso   1.000  He
  Ne22     1.0000 0.03883  0.56205  0.41491  Biso   1.000  Ne
  Ne23     1.0000 0.59447  0.15629  0.63394  Biso   1.000  Ne
  He23     1.0000 0.62606  0.14504  0.63927  Biso   1.000  He
  He24     1.0000 0.63216  0.13593  0.67138  Biso   1.000  He
  Ne24     1.0000 0.64979  0.15785  0.68831  Biso   1.000  Ne
  Ne25     1.0000 0.12561  0.43358  0.52804  Biso   1.000  Ne
  He25     1.0000 0.12122  0.40731  0.54934  Biso   1.000  He
  He26     1.0000 0.10103  0.41271  0.57831  Biso   1.000  He
  Ne26     1.0000 0.10161  0.38989  0.59960  Biso   1.000  Ne
  Ne27     1.0000 0.04721  0.36166  0.88283  Biso   1.000  Ne
  He27     1.0000 0.02962  0.36317  0.85313  Biso   1.000  He
  He28     1.0000 0.04475  0.34564  0.83023  Biso   1.000  He
  Ne28     1.0000 0.03302  0.34690  0.79954  Biso   1.000  Ne
  Ne29     1.0000 0.40918  0.68318  0.07524  Biso   1.000  Ne
  He29     1.0000 0.42187  0.71097  0.08725  Biso   1.000  He
  He30     1.0000 0.42385  0.70886  0.12123  Biso   1.000  He
  Ne30     1.0000 0.43021  0.73522  0.14057  Biso   1.000  Ne
  Ne31     1.0000 0.43973  0.21790  0.37917  Biso   1.000  Ne
  He31     1.0000 0.40573  0.22347  0.37846  Biso   1.000  He
  He32     1.0000 0.38720  0.20932  0.40458  Biso   1.000  He
  Ne32     1.0000 0.35673  0.22286  0.41025  Biso   1.000  Ne
  Ne33     1.0000 0.41329  0.60129  0.92723  Biso   1.000  Ne
  He33     1.0000 0.38914  0.57988  0.91882  Biso   1.000  He
  He34     1.0000 0.36664  0.58993  0.89683  Biso   1.000  He
  Ne34     1.0000 0.34183  0.60760  0.91010  Biso   1.000  Ne
  Ne35     1.0000 0.42125  0.92458  0.41533  Biso   1.000  Ne
  He35     1.0000 0.39881  0.91836  0.39460  Biso   1.000  He
  He36     1.0000 0.38041  0.94118  0.38453  Biso   1.000  He
  Ne36     1.0000 0.35671  0.92931  0.36244  Biso   1.000  Ne
  Ne37     1.0000 0.79308  0.37872  0.56886  Biso   1.000  Ne
  He37     1.0000 0.82305  0.39365  0.57304  Biso   1.000  He
  He38     1.0000 0.83196  0.39340  0.60538  Biso   1.000  He
  Ne38     1.0000 0.86146  0.40582  0.61281  Biso   1.000  Ne
  Ne39     1.0000 0.85799  0.08195  0.06000  Biso   1.000  Ne
  He39     1.0000 0.84837  0.10157  0.08792  Biso   1.000  He
  He40     1.0000 0.85453  0.08711  0.11613  Biso   1.000  He
  Ne40     1.0000 0.84577  0.10458  0.14253  Biso   1.000  Ne
  Ne41     1.0000 0.11057  0.41334  0.38650  Biso   1.000  Ne
  He41     1.0000 0.10029  0.42453  0.41494  Biso   1.000  He
  He42     1.0000 0.10301  0.45851  0.41500  Biso   1.000  He
  Ne42     1.0000 0.09612  0.47012  0.44406  Biso   1.000  Ne
  Ne43     1.0000 0.65966  0.43041  0.07910  Biso   1.000  Ne
  He43     1.0000 0.62664  0.43403  0.08505  Biso   1.000  He
  He44     1.0000 0.60981  0.40669  0.09382  Biso   1.000  He
  Ne44     1.0000 0.57397  0.41220  0.09476  Biso   1.000  Ne
  Ne45     1.0000 0.95963  0.43751  0.47106  Biso   1.000  Ne
  He45     1.0000 0.98738  0.43750  0.48694  Biso   1.000  He
  He46     1.0000 0.01536  0.43255  0.46892  Biso   1.000  He
  Ne46     1.0000 0.04437  0.43102  0.48663  Biso   1.000  Ne
  Ne47     1.0000 0.92054  0.40535  0.36340  Biso   1.000  Ne
  He47     1.0000 0.93299  0.37595  0.37467  Biso   1.000  He
  He48     1.0000 0.91681  0.36110  0.40096  Biso   1.000  He
  Ne48     1.0000 0.92511  0.32923  0.41233  Biso   1.000  Ne
  Ne49     1.0000 0.20607  0.36591  0.37171  Biso   1.000  Ne
  He49     1.0000 0.20676  0.39536  0.38613  Biso   1.000  He
  He50     1.0000 0.23127  0.41424  0.37344  Biso   1.000  He
  Ne50     1.0000 0.23520  0.44601  0.38269  Biso   1.000  Ne
  Ne51     1.0000 0.91904  0.42965  0.70440  Biso   1.000  Ne
  He51     1.0000 0.93985  0.41267  0.68546  Biso   1.000  He
  He52     1.0000 0.92755  0.40470  0.65406  Biso   1.000  He
  Ne52     1.0000 0.94671  0.38583  0.63658  Biso   1.000  Ne
  Ne53     1.0000 0.74016  0.41555  0.91810  Biso   1.000  Ne
  He53     1.0000 0.73243  0.43091  0.88987  Biso   1.000  He
  He54     1.0000 0.69998  0.43333  0.88583  Biso   1.000  He
  Ne54     1.0000 0.69131  0.44700  0.85679  Biso   1.000  Ne
  Ne55     1.0000 0.44444  0.59443  0.18238  Biso   1.000  Ne
  He55     1.0000 0.42000  0.58124  0.16491  Biso   1.000  He
  He56     1.0000 0.38774  0.59149  0.17215  Biso   1.000  He
  Ne56     1.0000 0.36566  0.58671  0.15028  Biso   1.000  Ne
  Ne57     1.0000 0.59971  0.39057  0.82425  Biso   1.000  Ne
  He57     1.0000 0.61467  0.41220  0.80329  Biso   1.000  He
  He58     1.0000 0.64594  0.40717  0.79816  Biso   1.000  He
  Ne58     1.0000 0.66279  0.42985  0.78061  Biso   1.000  Ne
  Ne59     1.0000 0.95260  0.01861  0.03117  Biso   1.000  Ne
  He59     1.0000 0.94856  0.04922  0.04423  Biso   1.000  He
  He60     1.0000 0.95087  0.07274  0.01994  Biso   1.000  He
  Ne60     1.0000 0.94425  0.10289  0.03036  Biso   1.000  Ne
  Ne61     1.0000 0.59801  0.67385  0.87928  Biso   1.000  Ne
  He61     1.0000 0.60094  0.69803  0.90168  Biso   1.000  He
  He62     1.0000 0.59924  0.72701  0.88654  Biso   1.000  He
  Ne62     1.0000 0.60216  0.75268  0.90665  Biso   1.000  Ne
  Ne63     1.0000 0.13142  0.58254  0.60536  Biso   1.000  Ne
  He63     1.0000 0.11848  0.58152  0.63513  Biso   1.000  He
  He64     1.0000 0.14053  0.58151  0.65965  Biso   1.000  He
  Ne64     1.0000 0.12341  0.57977  0.68855  Biso   1.000  Ne
  Ne65     1.0000 0.56866  0.93451  0.58827  Biso   1.000  Ne
  He65     1.0000 0.58152  0.90769  0.59502  Biso   1.000  He
  He66     1.0000 0.57430  0.89823  0.62528  Biso   1.000  He
  Ne66     1.0000 0.58451  0.86891  0.63632  Biso   1.000  Ne
  Ne67     1.0000 0.43665  0.39467  0.07649  Biso   1.000  Ne
  He67     1.0000 0.43462  0.36535  0.06431  Biso   1.000  He
  He68     1.0000 0.42361  0.33985  0.08107  Biso   1.000  He
  Ne68     1.0000 0.42318  0.31460  0.06144  Biso   1.000  Ne
  Ne69     1.0000 0.84732  0.20114  0.87475  Biso   1.000  Ne
  He69     1.0000 0.87772  0.19752  0.87168  Biso   1.000  He
  He70     1.0000 0.88691  0.19287  0.83937  Biso   1.000  He
  Ne70     1.0000 0.92072  0.19086  0.83859  Biso   1.000  Ne
  Ne71     1.0000 0.91087  0.16364  0.08774  Biso   1.000  Ne
  He71     1.0000 0.90325  0.19614  0.08910  Biso   1.000  He
  He72     1.0000 0.90565  0.20823  0.11729  Biso   1.000  He
  Ne72     1.0000 0.89933  0.24034  0.11400  Biso   1.000  Ne
  Ne73     1.0000 0.04995  0.21216  0.66802  Biso   1.000  Ne
  He73     1.0000 0.06750  0.23346  0.65096  Biso   1.000  He
  He74     1.0000 0.09215  0.24963  0.66362  Biso   1.000  He
  Ne74     1.0000 0.10234  0.27446  0.64248  Biso   1.000  Ne
  Ne75     1.0000 0.92427  0.61305  0.28058  Biso   1.000  Ne
  He75     1.0000 0.91965  0.63653  0.30135  Biso   1.000  He
  He76     1.0000 0.90653  0.62330  0.32889  Biso   1.000  He
  Ne76     1.0000 0.89936  0.64612  0.35185  Biso   1.000  Ne
  Ne77     1.0000 0.67347  0.60788  0.10138  Biso   1.000  Ne
  He77     1.0000 0.64920  0.62409  0.08642  Biso   1.000  He
  He78     1.0000 0.61690  0.61238  0.09762  Biso   1.000  He
  Ne78     1.0000 0.59254  0.63199  0.09372  Biso   1.000  Ne
  Ne79     1.0000 0.27149  0.81991  0.36255  Biso   1.000  Ne
  He79     1.0000 0.26470  0.84932  0.37632  Biso   1.000  He
  He80     1.0000 0.23268  0.85610  0.37236  Biso   1.000  He
  Ne80     1.0000 0.22257  0.88717  0.38151  Biso   1.000  Ne
  Ne81     1.0000 0.33721  0.62313  0.78015  Biso   1.000  Ne
  He81     1.0000 0.30573  0.61570  0.79058  Biso   1.000  He
  He82     1.0000 0.30746  0.60120  0.82124  Biso   1.000  He
  Ne82     1.0000 0.28038  0.60615  0.84088  Biso   1.000  Ne
  Ne83     1.0000 0.55508  0.06447  0.57683  Biso   1.000  Ne
  He83     1.0000 0.58134  0.06624  0.59559  Biso   1.000  He
  He84     1.0000 0.61250  0.06809  0.57751  Biso   1.000  He
  Ne84     1.0000 0.62622  0.09715  0.56814  Biso   1.000  Ne
  Ne85     1.0000 0.08835  0.12646  0.82131  Biso   1.000  Ne
  He85     1.0000 0.08288  0.11243  0.85077  Biso   1.000  He
  He86     1.0000 0.10963  0.09504  0.86269  Biso   1.000  He
  Ne86     1.0000 0.10484  0.08346  0.89283  Biso   1.000  Ne
  Ne87     1.0000 0.86114  0.87572  0.07154  Biso   1.000  Ne
  He87     1.0000 0.87532  0.90591  0.07034  Biso   1.000  He
  He88     1.0000 0.90340  0.91444  0.05215  Biso   1.000  He
  Ne88     1.0000 0.92156  0.94162  0.06067  Biso   1.000  Ne
  Ne89     1.0000 0.42609  0.59337  0.82201  Biso   1.000  Ne
  He89     1.0000 0.42758  0.60153  0.78939  Biso   1.000  He
  He90     1.0000 0.44865  0.62759  0.77816  Biso   1.000  He
  Ne90     1.0000 0.44518  0.63721  0.74720  Biso   1.000  Ne
  Ne91     1.0000 0.78714  0.10789  0.72261  Biso   1.000  Ne
  He91     1.0000 0.75969  0.12715  0.72052  Biso   1.000  He
  He92     1.0000 0.73076  0.11014  0.72559  Biso   1.000  He
  Ne92     1.0000 0.71895  0.10126  0.69665  Biso   1.000  Ne
  Ne93     1.0000 0.46054  0.62015  0.04561  Biso   1.000  Ne
  He93     1.0000 0.43247  0.60579  0.04760  Biso   1.000  He
  He94     1.0000 0.42153  0.59570  0.07583  Biso   1.000  He
  Ne94     1.0000 0.39257  0.58221  0.07202  Biso   1.000  Ne
  Ne95     1.0000 0.01940  0.51270  0.56423  Biso   1.000  Ne
  He95     1.0000 0.05161  0.51655  0.57264  Biso   1.000  He
  He96     1.0000 0.07228  0.51421  0.54667  Biso   1.000  He
  Ne96     1.0000 0.10342  0.52720  0.55104  Biso   1.000  Ne
  Ne97     1.0000 0.89868  0.11155  0.83354  Biso   1.000  Ne
  He97     1.0000 0.87383  0.10769  0.85639  Biso   1.000  He
  He98     1.0000 0.88550  0.09794  0.88767  Biso   1.000  He
  Ne98     1.0000 0.86162  0.09993  0.91265  Biso   1.000  Ne
  Ne99     1.0000 0.34105  0.19098  0.57832  Biso   1.000  Ne
  He99     1.0000 0.32708  0.16245  0.57203  Biso   1.000  He
  He100    1.0000 0.31465  0.14697  0.59844  Biso   1.000  He
  Ne100    1.0000 0.29994  0.11796  0.59478  Biso   1.000  Ne
