data_image0
_cell_length_a       46.6846
_cell_length_b       46.817
_cell_length_c       46.573
_cell_angle_alpha    90
_cell_angle_beta     90
_cell_angle_gamma    90

_symmetry_space_group_name_H-M    "P 1"
_symmetry_int_tables_number       1

loop_
  _symmetry_equiv_pos_as_xyz
  'x, y, z'

loop_
  _atom_site_label
  _atom_site_occupancy
  _atom_site_fract_x
  _atom_site_fract_y
  _atom_site_fract_z
  _atom_site_thermal_displace_type
  _atom_site_B_iso_or_equiv
  _atom_site_type_symbol
  Ne1      1.0000 0.64482  0.40827  0.21731  Biso   1.000  Ne
  He1      1.0000 0.67288  0.40427  0.19881  Biso   1.000  He
  He2      1.0000 0.67323  0.42151  0.17322  Biso   1.000  He
  Ne2      1.0000 0.70050  0.41820  0.15348  Biso   1.000  Ne
  Ne3      1.0000 0.61702  0.61830  0.11699  Biso   1.000  Ne
  He3      1.0000 0.60044  0.64441  0.11021  Biso   1.000  He
  He4      1.0000 0.61349  0.67313  0.12419  Biso   1.000  He
  Ne4      1.0000 0.59435  0.70096  0.12059  Biso   1.000  Ne
  Ne5      1.0000 0.61373  0.91577  0.65206  Biso   1.000  Ne
  He5      1.0000 0.58889  0.92113  0.63101  Biso   1.000  He
  He6      1.0000 0.57281  0.89203  0.62306  Biso   1.000  He
  Ne6      1.0000 0.58841  0.87336  0.59799  Biso   1.000  Ne
  Ne7      1.0000 0.20594  0.59262  0.62857  Biso   1.000  Ne
  He7      1.0000 0.17392  0.58777  0.63059  Biso   1.000  He
  He8      1.0000 0.15743  0.60695  0.60955  Biso   1.000  He
  Ne8      1.0000 0.12381  0.60122  0.60975  Biso   1.000  Ne
  Ne9      1.0000 0.63537  0.76384  0.42285  Biso   1.000  Ne
  He9      1.0000 0.62539  0.79607  0.41513  Biso   1.000  He
  He10     1.0000 0.59795  0.79526  0.39637  Biso   1.000  He
  Ne10     1.0000 0.59176  0.82380  0.38129  Biso   1.000  Ne
  Ne11     1.0000 0.86532  0.40239  0.42911  Biso   1.000  Ne
  He11     1.0000 0.83234  0.39967  0.42551  Biso   1.000  He
  He12     1.0000 0.82100  0.40812  0.39654  Biso   1.000  He
  Ne12     1.0000 0.78811  0.41127  0.39655  Biso   1.000  Ne
  Ne13     1.0000 0.93681  0.61979  0.63975  Biso   1.000  Ne
  He13     1.0000 0.93901  0.63155  0.67014  Biso   1.000  He
  He14     1.0000 0.93602  0.66539  0.67312  Biso   1.000  He
  Ne14     1.0000 0.94272  0.67793  0.70385  Biso   1.000  Ne
  Ne15     1.0000 0.81957  0.60615  0.37322  Biso   1.000  Ne
  He15     1.0000 0.84267  0.58781  0.38849  Biso   1.000  He
  He16     1.0000 0.87177  0.59835  0.37477  Biso   1.000  He
  Ne16     1.0000 0.90019  0.58722  0.38874  Biso   1.000  Ne
  Ne17     1.0000 0.85949  0.57588  0.58667  Biso   1.000  Ne
  He17     1.0000 0.84920  0.60728  0.59058  Biso   1.000  He
  He18     1.0000 0.87092  0.63089  0.57913  Biso   1.000  He
  Ne18     1.0000 0.86003  0.66400  0.58281  Biso   1.000  Ne
  Ne19     1.0000 0.41532  0.85268  0.68038  Biso   1.000  Ne
  He19     1.0000 0.39746  0.87920  0.68508  Biso   1.000  He
  He20     1.0000 0.40844  0.90500  0.66795  Biso   1.000  He
  Ne20     1.0000 0.39302  0.93143  0.67493  Biso   1.000  Ne
  Ne21     1.0000 0.59589  0.16706  0.41776  Biso   1.000  Ne
  He21     1.0000 0.61840  0.15342  0.39711  Biso   1.000  He
  He22     1.0000 0.60150  0.14124  0.37199  Biso   1.000  He
  Ne22     1.0000 0.61641  0.12053  0.35161  Biso   1.000  Ne
  Ne23     1.0000 0.44659  0.37109  0.18803  Biso   1.000  Ne
  He23     1.0000 0.46289  0.38491  0.21501  Biso   1.000  He
  He24     1.0000 0.45382  0.41658  0.22308  Biso   1.000  He
  Ne24     1.0000 0.46725  0.43305  0.24960  Biso   1.000  Ne
  Ne25     1.0000 0.10318  0.87309  0.88192  Biso   1.000  Ne
  He25     1.0000 0.09515  0.89159  0.90675  Biso   1.000  He
  He26     1.0000 0.07737  0.91736  0.89798  Biso   1.000  He
  Ne26     1.0000 0.07360  0.94212  0.92194  Biso   1.000  Ne
  Ne27     1.0000 0.94282  0.10058  0.06868  Biso   1.000  Ne
  He27     1.0000 0.91984  0.10264  0.09466  Biso   1.000  He
  He28     1.0000 0.89444  0.11993  0.08651  Biso   1.000  He
  Ne28     1.0000 0.86409  0.10622  0.09107  Biso   1.000  Ne
  Ne29     1.0000 0.86263  0.81745  0.92688  Biso   1.000  Ne
  He29     1.0000 0.88784  0.82632  0.90804  Biso   1.000  He
  He30     1.0000 0.91482  0.83674  0.92321  Biso   1.000  He
  Ne30     1.0000 0.93831  0.84561  0.90159  Biso   1.000  Ne
  Ne31     1.0000 0.41208  0.67338  0.08220  Biso   1.000  Ne
  He31     1.0000 0.38519  0.67912  0.10218  Biso   1.000  He
  He32     1.0000 0.37799  0.65270  0.12071  Biso   1.000  He
  Ne32     1.0000 0.35047  0.65278  0.13946  Biso   1.000  Ne
  Ne33     1.0000 0.92763  0.92839  0.09520  Biso   1.000  Ne
  He33     1.0000 0.92009  0.95694  0.07818  Biso   1.000  He
  He34     1.0000 0.93957  0.98494  0.08401  Biso   1.000  He
  Ne34     1.0000 0.92995  0.00960  0.06269  Biso   1.000  Ne
  Ne35     1.0000 0.86748  0.69912  0.40025  Biso   1.000  Ne
  He35     1.0000 0.89780  0.69252  0.40373  Biso   1.000  He
  He36     1.0000 0.90555  0.66554  0.42111  Biso   1.000  He
  Ne36     1.0000 0.93861  0.65926  0.42327  Biso   1.000  Ne
  Ne37     1.0000 0.08777  0.62114  0.40296  Biso   1.000  Ne
  He37     1.0000 0.09210  0.59156  0.41239  Biso   1.000  He
  He38     1.0000 0.11597  0.58983  0.43287  Biso   1.000  He
  Ne38     1.0000 0.11910  0.55865  0.44909  Biso   1.000  Ne
  Ne39     1.0000 0.84858  0.90724  0.86234  Biso   1.000  Ne
  He39     1.0000 0.85980  0.88591  0.84165  Biso   1.000  He
  He40     1.0000 0.88713  0.89535  0.82393  Biso   1.000  He
  Ne40     1.0000 0.90053  0.86974  0.80935  Biso   1.000  Ne
