data_image0
_cell_length_a       46.4851
_cell_length_b       46.7365
_cell_length_c       46.5127
_cell_angle_alpha    90
_cell_angle_beta     90
_cell_angle_gamma    90

_symmetry_space_group_name_H-M    "P 1"
_symmetry_int_tables_number       1

loop_
  _symmetry_equiv_pos_as_xyz
  'x, y, z'

loop_
  _atom_site_label
  _atom_site_occupancy
  _atom_site_fract_x
  _atom_site_fract_y
  _atom_site_fract_z
  _atom_site_thermal_displace_type
  _atom_site_B_iso_or_equiv
  _atom_site_type_symbol
  Ne1      1.0000 0.19117  0.08777  0.92932  Biso   1.000  Ne
  He1      1.0000 0.16698  0.09100  0.90607  Biso   1.000  He
  He2      1.0000 0.15887  0.06588  0.88775  Biso   1.000  He
  Ne2      1.0000 0.13253  0.07243  0.86862  Biso   1.000  Ne
  Ne3      1.0000 0.92154  0.97100  0.09378  Biso   1.000  Ne
  He3      1.0000 0.91398  0.96285  0.06325  Biso   1.000  He
  He4      1.0000 0.92914  0.93653  0.05163  Biso   1.000  He
  Ne4      1.0000 0.92030  0.93219  0.02063  Biso   1.000  Ne
  Ne5      1.0000 0.44435  0.54878  0.24227  Biso   1.000  Ne
  He5      1.0000 0.41288  0.55241  0.24422  Biso   1.000  He
  He6      1.0000 0.40711  0.56745  0.27331  Biso   1.000  He
  Ne6      1.0000 0.37520  0.57197  0.28110  Biso   1.000  Ne
  Ne7      1.0000 0.25038  0.34896  0.40858  Biso   1.000  Ne
  He7      1.0000 0.22045  0.34922  0.42616  Biso   1.000  He
  He8      1.0000 0.22136  0.34397  0.45979  Biso   1.000  He
  Ne8      1.0000 0.19129  0.34279  0.47482  Biso   1.000  Ne
  Ne9      1.0000 0.58647  0.86581  0.68148  Biso   1.000  Ne
  He9      1.0000 0.60127  0.88371  0.70669  Biso   1.000  He
  He10     1.0000 0.62100  0.86732  0.72661  Biso   1.000  He
  Ne10     1.0000 0.64071  0.88397  0.74550  Biso   1.000  Ne
  Ne11     1.0000 0.04968  0.50210  0.46655  Biso   1.000  Ne
  He11     1.0000 0.03383  0.47571  0.46643  Biso   1.000  He
  He12     1.0000 0.00189  0.47939  0.45471  Biso   1.000  He
  Ne12     1.0000 0.98192  0.45495  0.45152  Biso   1.000  Ne
  Ne13     1.0000 0.65938  0.27938  0.95793  Biso   1.000  Ne
  He13     1.0000 0.63188  0.27163  0.97368  Biso   1.000  He
  He14     1.0000 0.61024  0.25300  0.95700  Biso   1.000  He
  Ne14     1.0000 0.57986  0.24935  0.97087  Biso   1.000  Ne
  Ne15     1.0000 0.53964  0.56057  0.93000  Biso   1.000  Ne
  He15     1.0000 0.55722  0.54139  0.94937  Biso   1.000  He
  He16     1.0000 0.58729  0.54525  0.94021  Biso   1.000  He
  Ne16     1.0000 0.61274  0.52705  0.95278  Biso   1.000  Ne
  Ne17     1.0000 0.85309  0.55510  0.61878  Biso   1.000  Ne
  He17     1.0000 0.82239  0.55456  0.60976  Biso   1.000  He
  He18     1.0000 0.81033  0.58557  0.60349  Biso   1.000  He
  Ne18     1.0000 0.77568  0.58773  0.60250  Biso   1.000  Ne
  Ne19     1.0000 0.41509  0.40003  0.94534  Biso   1.000  Ne
  He19     1.0000 0.41027  0.38327  0.91792  Biso   1.000  He
  He20     1.0000 0.41370  0.35093  0.92081  Biso   1.000  He
  Ne20     1.0000 0.40232  0.33586  0.89184  Biso   1.000  Ne
  Ne21     1.0000 0.54491  0.55166  0.82986  Biso   1.000  Ne
  He21     1.0000 0.56063  0.57523  0.84853  Biso   1.000  He
  He22     1.0000 0.59421  0.57620  0.84956  Biso   1.000  He
  Ne22     1.0000 0.60849  0.60062  0.86435  Biso   1.000  Ne
  Ne23     1.0000 0.14840  0.09807  0.13034  Biso   1.000  Ne
  He23     1.0000 0.13637  0.12806  0.13005  Biso   1.000  He
  He24     1.0000 0.10362  0.13023  0.12116  Biso   1.000  He
  Ne24     1.0000 0.09400  0.16565  0.11891  Biso   1.000  Ne
  Ne25     1.0000 0.08077  0.27935  0.46681  Biso   1.000  Ne
  He25     1.0000 0.06945  0.29736  0.44403  Biso   1.000  He
  He26     1.0000 0.07046  0.32986  0.45231  Biso   1.000  He
  Ne26     1.0000 0.06819  0.35166  0.42501  Biso   1.000  Ne
  Ne27     1.0000 0.06031  0.82411  0.89866  Biso   1.000  Ne
  He27     1.0000 0.06873  0.79478  0.90435  Biso   1.000  He
  He28     1.0000 0.07539  0.78834  0.93712  Biso   1.000  He
  Ne28     1.0000 0.08128  0.75567  0.94800  Biso   1.000  Ne
  Ne29     1.0000 0.58800  0.36279  0.96951  Biso   1.000  Ne
  He29     1.0000 0.56117  0.37344  0.98933  Biso   1.000  He
  He30     1.0000 0.53665  0.38075  0.96945  Biso   1.000  He
  Ne30     1.0000 0.50774  0.38994  0.98645  Biso   1.000  Ne
  Ne31     1.0000 0.82461  0.55111  0.44141  Biso   1.000  Ne
  He31     1.0000 0.83639  0.55160  0.40934  Biso   1.000  He
  He32     1.0000 0.86973  0.55325  0.40331  Biso   1.000  He
  Ne32     1.0000 0.87677  0.55381  0.36973  Biso   1.000  Ne
  Ne33     1.0000 0.64188  0.65228  0.10697  Biso   1.000  Ne
  He33     1.0000 0.65256  0.62190  0.10838  Biso   1.000  He
  He34     1.0000 0.68576  0.61723  0.10804  Biso   1.000  He
  Ne34     1.0000 0.69185  0.58289  0.10442  Biso   1.000  Ne
  Ne35     1.0000 0.56621  0.45577  0.99136  Biso   1.000  Ne
  He35     1.0000 0.57778  0.44438  0.02134  Biso   1.000  He
  He36     1.0000 0.55707  0.43021  0.03971  Biso   1.000  He
  Ne36     1.0000 0.56613  0.42097  0.06738  Biso   1.000  Ne
  Ne37     1.0000 0.40193  0.56167  0.16434  Biso   1.000  Ne
  He37     1.0000 0.40204  0.59463  0.16268  Biso   1.000  He
  He38     1.0000 0.41217  0.61259  0.18824  Biso   1.000  He
  Ne38     1.0000 0.40865  0.64381  0.18097  Biso   1.000  Ne
  Ne39     1.0000 0.80901  0.08223  0.94099  Biso   1.000  Ne
  He39     1.0000 0.83900  0.07431  0.95710  Biso   1.000  He
  He40     1.0000 0.86540  0.08185  0.94239  Biso   1.000  He
  Ne40     1.0000 0.88925  0.07145  0.96040  Biso   1.000  Ne
  Ne41     1.0000 0.57050  0.40326  0.84092  Biso   1.000  Ne
  He41     1.0000 0.57573  0.37814  0.85696  Biso   1.000  He
  He42     1.0000 0.56186  0.37286  0.88574  Biso   1.000  He
  Ne42     1.0000 0.57047  0.34405  0.89686  Biso   1.000  Ne
  Ne43     1.0000 0.69111  0.54558  0.92024  Biso   1.000  Ne
  He43     1.0000 0.69359  0.56844  0.89684  Biso   1.000  He
  He44     1.0000 0.71840  0.58895  0.90309  Biso   1.000  He
  Ne44     1.0000 0.71621  0.61226  0.88281  Biso   1.000  Ne
  Ne45     1.0000 0.13494  0.58325  0.62626  Biso   1.000  Ne
  He45     1.0000 0.10162  0.58436  0.62823  Biso   1.000  He
  He46     1.0000 0.08608  0.55808  0.62456  Biso   1.000  He
  Ne46     1.0000 0.07771  0.55295  0.59174  Biso   1.000  Ne
  Ne47     1.0000 0.43398  0.40186  0.22318  Biso   1.000  Ne
  He47     1.0000 0.41884  0.37353  0.22558  Biso   1.000  He
  He48     1.0000 0.43906  0.35338  0.23776  Biso   1.000  He
  Ne48     1.0000 0.42351  0.32762  0.24907  Biso   1.000  Ne
  Ne49     1.0000 0.86553  0.91338  0.17620  Biso   1.000  Ne
  He49     1.0000 0.88964  0.89963  0.19397  Biso   1.000  He
  He50     1.0000 0.90034  0.87195  0.17996  Biso   1.000  He
  Ne50     1.0000 0.92677  0.85964  0.19743  Biso   1.000  Ne
  Ne51     1.0000 0.91646  0.54472  0.51519  Biso   1.000  Ne
  He51     1.0000 0.91890  0.53543  0.48425  Biso   1.000  He
  He52     1.0000 0.93801  0.55411  0.46441  Biso   1.000  He
  Ne52     1.0000 0.94083  0.54491  0.43059  Biso   1.000  Ne
  Ne53     1.0000 0.06722  0.05625  0.06762  Biso   1.000  Ne
  He53     1.0000 0.09045  0.05292  0.09168  Biso   1.000  He
  He54     1.0000 0.07587  0.03434  0.11740  Biso   1.000  He
  Ne54     1.0000 0.09886  0.03230  0.14239  Biso   1.000  Ne
  Ne55     1.0000 0.63064  0.06739  0.48359  Biso   1.000  Ne
  He55     1.0000 0.60880  0.04326  0.47361  Biso   1.000  He
  He56     1.0000 0.57680  0.05498  0.46314  Biso   1.000  He
  Ne56     1.0000 0.57174  0.05460  0.43040  Biso   1.000  Ne
  Ne57     1.0000 0.41864  0.80816  0.61881  Biso   1.000  Ne
  He57     1.0000 0.41369  0.81816  0.65004  Biso   1.000  He
  He58     1.0000 0.42571  0.79890  0.67366  Biso   1.000  He
  Ne58     1.0000 0.41993  0.80609  0.70672  Biso   1.000  Ne
  Ne59     1.0000 0.88157  0.64065  0.44205  Biso   1.000  Ne
  He59     1.0000 0.90105  0.64361  0.41553  Biso   1.000  He
  He60     1.0000 0.88596  0.63000  0.39032  Biso   1.000  He
  Ne60     1.0000 0.90434  0.62685  0.36343  Biso   1.000  Ne
  Ne61     1.0000 0.50948  0.51077  0.08323  Biso   1.000  Ne
  He61     1.0000 0.53967  0.51438  0.09244  Biso   1.000  He
  He62     1.0000 0.56031  0.51665  0.06494  Biso   1.000  He
  Ne62     1.0000 0.59182  0.52739  0.06906  Biso   1.000  Ne
  Ne63     1.0000 0.10171  0.64275  0.41714  Biso   1.000  Ne
  He63     1.0000 0.10030  0.61048  0.41727  Biso   1.000  He
  He64     1.0000 0.07462  0.59991  0.40112  Biso   1.000  He
  Ne64     1.0000 0.07510  0.56642  0.39733  Biso   1.000  Ne
  Ne65     1.0000 0.09322  0.77301  0.14810  Biso   1.000  Ne
  He65     1.0000 0.09288  0.75758  0.11944  Biso   1.000  He
  He66     1.0000 0.12060  0.73576  0.11684  Biso   1.000  He
  Ne66     1.0000 0.12051  0.71294  0.09164  Biso   1.000  Ne
  Ne67     1.0000 0.83811  0.34958  0.61284  Biso   1.000  Ne
  He67     1.0000 0.86695  0.33652  0.60614  Biso   1.000  He
  He68     1.0000 0.88474  0.32912  0.63293  Biso   1.000  He
  Ne68     1.0000 0.90933  0.30763  0.62615  Biso   1.000  Ne
  Ne69     1.0000 0.40954  0.65921  0.87687  Biso   1.000  Ne
  He69     1.0000 0.42263  0.66484  0.90750  Biso   1.000  He
  He70     1.0000 0.41403  0.69371  0.91973  Biso   1.000  He
  Ne70     1.0000 0.42773  0.70233  0.95012  Biso   1.000  Ne
  Ne71     1.0000 0.90499  0.40691  0.61981  Biso   1.000  Ne
  He71     1.0000 0.92231  0.43524  0.62271  Biso   1.000  He
  He72     1.0000 0.92557  0.44594  0.59129  Biso   1.000  He
  Ne72     1.0000 0.94292  0.47305  0.58642  Biso   1.000  Ne
  Ne73     1.0000 0.82243  0.69619  0.96782  Biso   1.000  Ne
  He73     1.0000 0.82514  0.66254  0.96503  Biso   1.000  He
  He74     1.0000 0.81672  0.64759  0.93698  Biso   1.000  He
  Ne74     1.0000 0.78411  0.63724  0.93655  Biso   1.000  Ne
  Ne75     1.0000 0.41564  0.81489  0.36956  Biso   1.000  Ne
  He75     1.0000 0.43059  0.83092  0.39388  Biso   1.000  He
  He76     1.0000 0.43530  0.81626  0.42220  Biso   1.000  He
  Ne76     1.0000 0.44356  0.83508  0.44964  Biso   1.000  Ne
  Ne77     1.0000 0.47470  0.40417  0.07230  Biso   1.000  Ne
  He77     1.0000 0.47523  0.41723  0.10204  Biso   1.000  He
  He78     1.0000 0.45021  0.44092  0.10507  Biso   1.000  He
  Ne78     1.0000 0.44949  0.45463  0.13525  Biso   1.000  Ne
  Ne79     1.0000 0.33055  0.34205  0.95719  Biso   1.000  Ne
  He79     1.0000 0.30487  0.35982  0.97271  Biso   1.000  He
  He80     1.0000 0.30299  0.39126  0.96385  Biso   1.000  He
  Ne80     1.0000 0.28380  0.41061  0.98306  Biso   1.000  Ne
  Ne81     1.0000 0.54394  0.96482  0.48999  Biso   1.000  Ne
  He81     1.0000 0.56000  0.98584  0.51023  Biso   1.000  He
  He82     1.0000 0.53518  0.00200  0.52848  Biso   1.000  He
  Ne82     1.0000 0.54749  0.02821  0.54776  Biso   1.000  Ne
  Ne83     1.0000 0.43008  0.95942  0.54948  Biso   1.000  Ne
  He83     1.0000 0.43129  0.93473  0.57464  Biso   1.000  He
  He84     1.0000 0.44283  0.90672  0.56348  Biso   1.000  He
  Ne84     1.0000 0.44360  0.88256  0.58544  Biso   1.000  Ne
  Ne85     1.0000 0.07634  0.93773  0.04627  Biso   1.000  Ne
  He85     1.0000 0.05543  0.95216  0.06566  Biso   1.000  He
  He86     1.0000 0.05266  0.93673  0.09647  Biso   1.000  He
  Ne86     1.0000 0.02886  0.94925  0.11589  Biso   1.000  Ne
  Ne87     1.0000 0.01505  0.99553  0.97002  Biso   1.000  Ne
  He87     1.0000 0.99417  0.00613  0.99465  Biso   1.000  He
  He88     1.0000 0.96787  0.02639  0.98755  Biso   1.000  He
  Ne88     1.0000 0.94856  0.03411  0.01418  Biso   1.000  Ne
  Ne89     1.0000 0.03123  0.40621  0.53958  Biso   1.000  Ne
  He89     1.0000 0.05286  0.42072  0.51758  Biso   1.000  He
  He90     1.0000 0.07880  0.40461  0.51433  Biso   1.000  He
  Ne90     1.0000 0.09668  0.41504  0.48921  Biso   1.000  Ne
  Ne91     1.0000 0.07452  0.88688  0.75439  Biso   1.000  Ne
  He91     1.0000 0.07576  0.89490  0.78796  Biso   1.000  He
  He92     1.0000 0.07359  0.87072  0.80923  Biso   1.000  He
  Ne92     1.0000 0.07829  0.88316  0.83795  Biso   1.000  Ne
  Ne93     1.0000 0.58680  0.36951  0.12641  Biso   1.000  Ne
  He93     1.0000 0.61756  0.35801  0.13652  Biso   1.000  He
  He94     1.0000 0.64209  0.36873  0.11702  Biso   1.000  He
  Ne94     1.0000 0.67132  0.35544  0.12258  Biso   1.000  Ne
  Ne95     1.0000 0.07127  0.33679  0.64988  Biso   1.000  Ne
  He95     1.0000 0.06456  0.30807  0.63867  Biso   1.000  He
  He96     1.0000 0.08995  0.28520  0.64031  Biso   1.000  He
  Ne96     1.0000 0.07767  0.25253  0.64352  Biso   1.000  Ne
  Ne97     1.0000 0.06713  0.04925  0.94648  Biso   1.000  Ne
  He97     1.0000 0.07670  0.07984  0.93998  Biso   1.000  He
  He98     1.0000 0.07642  0.09989  0.96453  Biso   1.000  He
  Ne98     1.0000 0.08181  0.13147  0.95539  Biso   1.000  Ne
  Ne99     1.0000 0.47670  0.91060  0.83903  Biso   1.000  Ne
  He99     1.0000 0.47886  0.93831  0.82058  Biso   1.000  He
  He100    1.0000 0.45813  0.96035  0.83366  Biso   1.000  He
  Ne100    1.0000 0.45908  0.99006  0.81816  Biso   1.000  Ne
  Ne101    1.0000 0.80242  0.76188  0.92634  Biso   1.000  Ne
  He101    1.0000 0.83012  0.76008  0.90810  Biso   1.000  He
  He102    1.0000 0.85863  0.76891  0.92458  Biso   1.000  He
  Ne102    1.0000 0.88534  0.76984  0.90489  Biso   1.000  Ne
  Ne103    1.0000 0.17990  0.37656  0.75454  Biso   1.000  Ne
  He103    1.0000 0.15493  0.35918  0.75369  Biso   1.000  He
  He104    1.0000 0.14674  0.34143  0.72708  Biso   1.000  He
  Ne104    1.0000 0.12164  0.31892  0.73199  Biso   1.000  Ne
  Ne105    1.0000 0.28054  0.57319  0.88298  Biso   1.000  Ne
  He105    1.0000 0.26435  0.59022  0.85808  Biso   1.000  He
  He106    1.0000 0.28150  0.59310  0.83040  Biso   1.000  He
  Ne106    1.0000 0.26769  0.61508  0.80960  Biso   1.000  Ne
  Ne107    1.0000 0.63294  0.16696  0.63860  Biso   1.000  Ne
  He107    1.0000 0.61292  0.14626  0.62297  Biso   1.000  He
  He108    1.0000 0.58004  0.14456  0.63434  Biso   1.000  He
  Ne108    1.0000 0.55864  0.12679  0.61281  Biso   1.000  Ne
  Ne109    1.0000 0.16722  0.85925  0.53846  Biso   1.000  Ne
  He109    1.0000 0.18296  0.88154  0.55784  Biso   1.000  He
  He110    1.0000 0.18721  0.91228  0.54677  Biso   1.000  He
  Ne110    1.0000 0.20251  0.93265  0.57003  Biso   1.000  Ne
  Ne111    1.0000 0.75740  0.86703  0.93374  Biso   1.000  Ne
  He111    1.0000 0.79005  0.87472  0.93350  Biso   1.000  He
  He112    1.0000 0.80470  0.87610  0.96380  Biso   1.000  He
  Ne112    1.0000 0.83275  0.89202  0.96502  Biso   1.000  Ne
  Ne113    1.0000 0.10732  0.40518  0.62157  Biso   1.000  Ne
  He113    1.0000 0.08102  0.42495  0.62901  Biso   1.000  He
  He114    1.0000 0.04999  0.40986  0.63330  Biso   1.000  He
  Ne114    1.0000 0.02922  0.42923  0.64655  Biso   1.000  Ne
  Ne115    1.0000 0.43482  0.07647  0.47477  Biso   1.000  Ne
  He115    1.0000 0.43410  0.09603  0.45000  Biso   1.000  He
  He116    1.0000 0.41357  0.12090  0.45525  Biso   1.000  He
  Ne116    1.0000 0.41504  0.14275  0.43009  Biso   1.000  Ne
  Ne117    1.0000 0.78109  0.54420  0.78172  Biso   1.000  Ne
  He117    1.0000 0.75105  0.55297  0.77735  Biso   1.000  He
  He118    1.0000 0.73702  0.56513  0.80502  Biso   1.000  He
  Ne118    1.0000 0.70731  0.58020  0.79598  Biso   1.000  Ne
  Ne119    1.0000 0.91928  0.14645  0.19126  Biso   1.000  Ne
  He119    1.0000 0.91486  0.15434  0.15910  Biso   1.000  He
  He120    1.0000 0.90962  0.18473  0.15531  Biso   1.000  He
  Ne120    1.0000 0.89773  0.19346  0.12440  Biso   1.000  Ne
  Ne121    1.0000 0.38215  0.90920  0.45625  Biso   1.000  Ne
  He121    1.0000 0.37167  0.89435  0.43097  Biso   1.000  He
  He122    1.0000 0.38544  0.90242  0.40293  Biso   1.000  He
  Ne122    1.0000 0.36997  0.89434  0.37539  Biso   1.000  Ne
  Ne123    1.0000 0.80901  0.27582  0.45648  Biso   1.000  Ne
  He123    1.0000 0.81791  0.30841  0.45875  Biso   1.000  He
  He124    1.0000 0.80017  0.32960  0.44189  Biso   1.000  He
  Ne124    1.0000 0.81462  0.35800  0.43922  Biso   1.000  Ne
  Ne125    1.0000 0.39582  0.07798  0.60086  Biso   1.000  Ne
  He125    1.0000 0.40449  0.09202  0.62913  Biso   1.000  He
  He126    1.0000 0.40092  0.12278  0.62878  Biso   1.000  He
  Ne126    1.0000 0.40526  0.13725  0.65850  Biso   1.000  Ne
  Ne127    1.0000 0.58357  0.13496  0.35601  Biso   1.000  Ne
  He127    1.0000 0.59200  0.14661  0.38447  Biso   1.000  He
  He128    1.0000 0.61073  0.12554  0.40631  Biso   1.000  He
  Ne128    1.0000 0.62049  0.13953  0.43623  Biso   1.000  Ne
  Ne129    1.0000 0.31417  0.05344  0.72954  Biso   1.000  Ne
  He129    1.0000 0.31212  0.03807  0.69927  Biso   1.000  He
  He130    1.0000 0.32772  0.05726  0.67697  Biso   1.000  He
  Ne130    1.0000 0.32601  0.04733  0.64474  Biso   1.000  Ne
  Ne131    1.0000 0.93186  0.86122  0.96348  Biso   1.000  Ne
  He131    1.0000 0.92166  0.85691  0.93304  Biso   1.000  He
  He132    1.0000 0.92202  0.88721  0.91652  Biso   1.000  He
  Ne132    1.0000 0.90705  0.88560  0.88791  Biso   1.000  Ne
  Ne133    1.0000 0.34308  0.06803  0.35272  Biso   1.000  Ne
  He133    1.0000 0.36990  0.06046  0.36814  Biso   1.000  He
  He134    1.0000 0.39662  0.07057  0.35617  Biso   1.000  He
  Ne134    1.0000 0.42113  0.05599  0.36814  Biso   1.000  Ne
  Ne135    1.0000 0.87410  0.39564  0.71681  Biso   1.000  Ne
  He135    1.0000 0.84644  0.40780  0.70293  Biso   1.000  He
  He136    1.0000 0.81891  0.39390  0.71413  Biso   1.000  He
  Ne136    1.0000 0.79043  0.40433  0.69888  Biso   1.000  Ne
  Ne137    1.0000 0.85262  0.07824  0.13390  Biso   1.000  Ne
  He137    1.0000 0.88074  0.08615  0.12006  Biso   1.000  He
  He138    1.0000 0.89411  0.06093  0.10327  Biso   1.000  He
  Ne138    1.0000 0.92580  0.06392  0.09226  Biso   1.000  Ne
  Ne139    1.0000 0.18528  0.57114  0.39081  Biso   1.000  Ne
  He139    1.0000 0.18079  0.55469  0.42319  Biso   1.000  He
  He140    1.0000 0.19475  0.56992  0.44981  Biso   1.000  He
  Ne140    1.0000 0.18264  0.55514  0.47714  Biso   1.000  Ne
  Ne141    1.0000 0.13577  0.65348  0.87388  Biso   1.000  Ne
  He141    1.0000 0.15321  0.62797  0.86144  Biso   1.000  He
  He142    1.0000 0.14372  0.60071  0.87908  Biso   1.000  He
  Ne142    1.0000 0.15430  0.57182  0.86960  Biso   1.000  Ne
  Ne143    1.0000 0.58068  0.58069  0.16877  Biso   1.000  Ne
  He143    1.0000 0.60674  0.56571  0.18026  Biso   1.000  He
  He144    1.0000 0.63293  0.57043  0.16264  Biso   1.000  He
  Ne144    1.0000 0.65698  0.55474  0.17728  Biso   1.000  Ne
  Ne145    1.0000 0.09506  0.88272  0.18820  Biso   1.000  Ne
  He145    1.0000 0.10044  0.88206  0.15523  Biso   1.000  He
  He146    1.0000 0.12977  0.89667  0.14350  Biso   1.000  He
  Ne146    1.0000 0.13095  0.89435  0.11081  Biso   1.000  Ne
  Ne147    1.0000 0.14961  0.85674  0.93854  Biso   1.000  Ne
  He147    1.0000 0.12832  0.87933  0.94595  Biso   1.000  He
  He148    1.0000 0.11231  0.89392  0.92197  Biso   1.000  He
  Ne148    1.0000 0.08603  0.91137  0.93305  Biso   1.000  Ne
  Ne149    1.0000 0.75411  0.08151  0.17182  Biso   1.000  Ne
  He149    1.0000 0.78011  0.09652  0.16178  Biso   1.000  He
  He150    1.0000 0.78220  0.12797  0.17155  Biso   1.000  He
  Ne150    1.0000 0.81171  0.14402  0.16098  Biso   1.000  Ne
  Ne151    1.0000 0.27889  0.84551  0.74174  Biso   1.000  Ne
  He151    1.0000 0.30211  0.85307  0.72006  Biso   1.000  He
  He152    1.0000 0.32972  0.86614  0.73138  Biso   1.000  He
  Ne152    1.0000 0.35450  0.87510  0.70792  Biso   1.000  Ne
  Ne153    1.0000 0.67161  0.07185  0.66458  Biso   1.000  Ne
  He153    1.0000 0.65394  0.06338  0.63636  Biso   1.000  He
  He154    1.0000 0.62099  0.05603  0.64177  Biso   1.000  He
  Ne154    1.0000 0.60121  0.05152  0.61474  Biso   1.000  Ne
  Ne155    1.0000 0.04490  0.36251  0.75734  Biso   1.000  Ne
  He155    1.0000 0.06298  0.37130  0.72908  Biso   1.000  He
  He156    1.0000 0.07955  0.40043  0.73472  Biso   1.000  He
  Ne156    1.0000 0.10231  0.41093  0.71446  Biso   1.000  Ne
  Ne157    1.0000 0.87890  0.79145  0.10536  Biso   1.000  Ne
  He157    1.0000 0.88561  0.78455  0.13870  Biso   1.000  He
  He158    1.0000 0.88033  0.75196  0.14774  Biso   1.000  He
  Ne158    1.0000 0.88936  0.74503  0.17717  Biso   1.000  Ne
  Ne159    1.0000 0.40537  0.60768  0.96290  Biso   1.000  Ne
  He159    1.0000 0.41194  0.57442  0.95429  Biso   1.000  He
  He160    1.0000 0.39109  0.55491  0.97116  Biso   1.000  He
  Ne160    1.0000 0.39378  0.52149  0.96707  Biso   1.000  Ne
