data_image0
_cell_length_a       47.0512
_cell_length_b       46.615
_cell_length_c       46.4901
_cell_angle_alpha    90
_cell_angle_beta     90
_cell_angle_gamma    90

_symmetry_space_group_name_H-M    "P 1"
_symmetry_int_tables_number       1

loop_
  _symmetry_equiv_pos_as_xyz
  'x, y, z'

loop_
  _atom_site_label
  _atom_site_occupancy
  _atom_site_fract_x
  _atom_site_fract_y
  _atom_site_fract_z
  _atom_site_thermal_displace_type
  _atom_site_B_iso_or_equiv
  _atom_site_type_symbol
  Ne1      1.0000 0.60095  0.62008  0.94139  Biso   1.000  Ne
  He1      1.0000 0.58361  0.63812  0.91898  Biso   1.000  He
  He2      1.0000 0.60166  0.65656  0.89928  Biso   1.000  He
  Ne2      1.0000 0.58495  0.67127  0.87434  Biso   1.000  Ne
  Ne3      1.0000 0.44449  0.76005  0.98756  Biso   1.000  Ne
  He3      1.0000 0.44958  0.74096  0.96021  Biso   1.000  He
  He4      1.0000 0.42452  0.72137  0.94886  Biso   1.000  He
  Ne4      1.0000 0.43251  0.70744  0.91972  Biso   1.000  Ne
  Ne5      1.0000 0.95491  0.56186  0.60229  Biso   1.000  Ne
  He5      1.0000 0.94558  0.57448  0.63345  Biso   1.000  He
  He6      1.0000 0.92001  0.59662  0.63142  Biso   1.000  He
  Ne6      1.0000 0.92693  0.62912  0.63212  Biso   1.000  Ne
  Ne7      1.0000 0.00893  0.93727  0.00658  Biso   1.000  Ne
  He7      1.0000 0.02021  0.96043  0.98565  Biso   1.000  He
  He8      1.0000 0.00415  0.96358  0.95823  Biso   1.000  He
  Ne8      1.0000 0.01745  0.98359  0.93643  Biso   1.000  Ne
  Ne9      1.0000 0.60545  0.13179  0.44755  Biso   1.000  Ne
  He9      1.0000 0.62254  0.16032  0.43579  Biso   1.000  He
  He10     1.0000 0.60437  0.17674  0.41485  Biso   1.000  He
  Ne10     1.0000 0.61874  0.20593  0.40059  Biso   1.000  Ne
  Ne11     1.0000 0.94827  0.77875  0.10890  Biso   1.000  Ne
  He11     1.0000 0.92963  0.80330  0.10224  Biso   1.000  He
  He12     1.0000 0.89764  0.79802  0.11626  Biso   1.000  He
  Ne12     1.0000 0.87626  0.82304  0.10960  Biso   1.000  Ne
  Ne13     1.0000 0.45297  0.30381  0.18246  Biso   1.000  Ne
  He13     1.0000 0.44939  0.33567  0.17690  Biso   1.000  He
  He14     1.0000 0.45091  0.35333  0.20631  Biso   1.000  He
  Ne14     1.0000 0.44940  0.38586  0.20205  Biso   1.000  Ne
  Ne15     1.0000 0.78628  0.42054  0.13672  Biso   1.000  Ne
  He15     1.0000 0.80356  0.43438  0.11137  Biso   1.000  He
  He16     1.0000 0.78617  0.43138  0.08136  Biso   1.000  He
  Ne16     1.0000 0.80007  0.44658  0.05535  Biso   1.000  Ne
  Ne17     1.0000 0.44560  0.55773  0.20575  Biso   1.000  Ne
  He17     1.0000 0.41451  0.55005  0.19774  Biso   1.000  He
  He18     1.0000 0.39297  0.57475  0.20658  Biso   1.000  He
  Ne18     1.0000 0.35933  0.57241  0.20045  Biso   1.000  Ne
  Ne19     1.0000 0.90168  0.72228  0.59025  Biso   1.000  Ne
  He19     1.0000 0.92635  0.74574  0.59193  Biso   1.000  He
  He20     1.0000 0.94144  0.75223  0.62218  Biso   1.000  He
  Ne20     1.0000 0.96057  0.78006  0.62403  Biso   1.000  Ne
  Ne21     1.0000 0.59409  0.43595  0.98851  Biso   1.000  Ne
  He21     1.0000 0.58348  0.41254  0.00907  Biso   1.000  He
  He22     1.0000 0.55700  0.42196  0.02802  Biso   1.000  He
  Ne22     1.0000 0.54631  0.39794  0.05053  Biso   1.000  Ne
  Ne23     1.0000 0.63608  0.92432  0.26585  Biso   1.000  Ne
  He23     1.0000 0.64981  0.90702  0.28990  Biso   1.000  He
  He24     1.0000 0.63392  0.91086  0.31816  Biso   1.000  He
  Ne24     1.0000 0.64815  0.89799  0.34456  Biso   1.000  Ne
  Ne25     1.0000 0.92656  0.40050  0.36311  Biso   1.000  Ne
  He25     1.0000 0.89616  0.38866  0.35489  Biso   1.000  He
  He26     1.0000 0.86934  0.40920  0.36473  Biso   1.000  He
  Ne26     1.0000 0.83963  0.39968  0.35751  Biso   1.000  Ne
  Ne27     1.0000 0.10990  0.80152  0.90619  Biso   1.000  Ne
  He27     1.0000 0.10243  0.78032  0.93126  Biso   1.000  He
  He28     1.0000 0.09083  0.75182  0.91941  Biso   1.000  He
  Ne28     1.0000 0.08432  0.73110  0.94557  Biso   1.000  Ne
  Ne29     1.0000 0.61996  0.53752  0.06623  Biso   1.000  Ne
  He29     1.0000 0.61129  0.54221  0.03372  Biso   1.000  He
  He30     1.0000 0.57825  0.53762  0.02619  Biso   1.000  He
  Ne30     1.0000 0.57305  0.54525  0.99482  Biso   1.000  Ne
  Ne31     1.0000 0.13107  0.18945  0.91868  Biso   1.000  Ne
  He31     1.0000 0.15784  0.17863  0.93320  Biso   1.000  He
  He32     1.0000 0.18193  0.16238  0.91357  Biso   1.000  He
  Ne32     1.0000 0.21096  0.15658  0.92763  Biso   1.000  Ne
  Ne33     1.0000 0.99034  0.06847  0.93138  Biso   1.000  Ne
  He33     1.0000 0.97768  0.08723  0.95548  Biso   1.000  He
  He34     1.0000 0.94937  0.10445  0.94321  Biso   1.000  He
  Ne34     1.0000 0.95104  0.13613  0.93938  Biso   1.000  Ne
  Ne35     1.0000 0.27044  0.54717  0.10765  Biso   1.000  Ne
  He35     1.0000 0.29785  0.56155  0.11901  Biso   1.000  He
  He36     1.0000 0.30508  0.59166  0.10595  Biso   1.000  He
  Ne36     1.0000 0.33703  0.59916  0.10483  Biso   1.000  Ne
  Ne37     1.0000 0.48262  0.58457  0.96743  Biso   1.000  Ne
  He37     1.0000 0.45011  0.59059  0.97212  Biso   1.000  He
  He38     1.0000 0.44058  0.61945  0.95510  Biso   1.000  He
  Ne38     1.0000 0.40891  0.62532  0.95862  Biso   1.000  Ne
  Ne39     1.0000 0.94010  0.12068  0.80740  Biso   1.000  Ne
  He39     1.0000 0.92055  0.09436  0.80680  Biso   1.000  He
  He40     1.0000 0.89379  0.10031  0.82615  Biso   1.000  He
  Ne40     1.0000 0.86935  0.07796  0.82106  Biso   1.000  Ne
  Ne41     1.0000 0.00010  0.41135  0.52431  Biso   1.000  Ne
  He41     1.0000 0.96930  0.41552  0.53304  Biso   1.000  He
  He42     1.0000 0.96454  0.44190  0.55278  Biso   1.000  He
  Ne42     1.0000 0.93415  0.44450  0.56480  Biso   1.000  Ne
  Ne43     1.0000 0.62566  0.08869  0.68738  Biso   1.000  Ne
  He43     1.0000 0.64390  0.09352  0.66032  Biso   1.000  He
  He44     1.0000 0.67339  0.08061  0.65885  Biso   1.000  He
  Ne44     1.0000 0.69076  0.09111  0.63228  Biso   1.000  Ne
  Ne45     1.0000 0.93041  0.41942  0.45868  Biso   1.000  Ne
  He45     1.0000 0.96074  0.43192  0.44518  Biso   1.000  He
  He46     1.0000 0.96773  0.46064  0.45629  Biso   1.000  He
  Ne46     1.0000 0.99663  0.46856  0.44501  Biso   1.000  Ne
  Ne47     1.0000 0.19907  0.56255  0.42577  Biso   1.000  Ne
  He47     1.0000 0.16659  0.55413  0.42993  Biso   1.000  He
  He48     1.0000 0.14080  0.57005  0.41626  Biso   1.000  He
  Ne48     1.0000 0.11239  0.55272  0.42204  Biso   1.000  Ne
  Ne49     1.0000 0.68731  0.61478  0.93232  Biso   1.000  Ne
  He49     1.0000 0.72061  0.60771  0.93048  Biso   1.000  He
  He50     1.0000 0.73121  0.58294  0.95195  Biso   1.000  He
  Ne50     1.0000 0.76215  0.56827  0.94648  Biso   1.000  Ne
  Ne51     1.0000 0.04474  0.57499  0.50048  Biso   1.000  Ne
  He51     1.0000 0.01173  0.57275  0.50297  Biso   1.000  He
  He52     1.0000 0.99892  0.54473  0.48956  Biso   1.000  He
  Ne52     1.0000 0.96618  0.54432  0.49249  Biso   1.000  Ne
  Ne53     1.0000 0.11191  0.53766  0.62612  Biso   1.000  Ne
  He53     1.0000 0.12586  0.56786  0.62699  Biso   1.000  He
  He54     1.0000 0.11171  0.59062  0.60885  Biso   1.000  He
  Ne54     1.0000 0.12697  0.61834  0.60859  Biso   1.000  Ne
  Ne55     1.0000 0.59249  0.61740  0.78871  Biso   1.000  Ne
  He55     1.0000 0.60909  0.59440  0.80885  Biso   1.000  He
  He56     1.0000 0.63406  0.60649  0.82756  Biso   1.000  He
  Ne56     1.0000 0.64437  0.58113  0.84585  Biso   1.000  Ne
  Ne57     1.0000 0.59162  0.46330  0.09296  Biso   1.000  Ne
  He57     1.0000 0.60899  0.43391  0.09711  Biso   1.000  He
  He58     1.0000 0.60837  0.42069  0.12696  Biso   1.000  He
  Ne58     1.0000 0.63043  0.39417  0.13463  Biso   1.000  Ne
  Ne59     1.0000 0.59653  0.77544  0.94900  Biso   1.000  Ne
  He59     1.0000 0.59859  0.74314  0.94886  Biso   1.000  He
  He60     1.0000 0.62035  0.73349  0.96946  Biso   1.000  He
  Ne60     1.0000 0.62154  0.70139  0.97007  Biso   1.000  Ne
  Ne61     1.0000 0.62847  0.91412  0.45033  Biso   1.000  Ne
  He61     1.0000 0.63606  0.89088  0.42706  Biso   1.000  He
  He62     1.0000 0.61112  0.87023  0.42092  Biso   1.000  He
  Ne62     1.0000 0.61613  0.84244  0.40395  Biso   1.000  Ne
  Ne63     1.0000 0.33074  0.55074  0.79413  Biso   1.000  Ne
  He63     1.0000 0.33307  0.55041  0.76069  Biso   1.000  He
  He64     1.0000 0.36558  0.54941  0.74545  Biso   1.000  He
  Ne64     1.0000 0.37964  0.57980  0.73589  Biso   1.000  Ne
  Ne65     1.0000 0.64599  0.33031  0.91579  Biso   1.000  Ne
  He65     1.0000 0.62791  0.30593  0.92589  Biso   1.000  He
  He66     1.0000 0.63377  0.27651  0.91289  Biso   1.000  He
  Ne66     1.0000 0.61529  0.25335  0.92751  Biso   1.000  Ne
  Ne67     1.0000 0.13532  0.07103  0.23542  Biso   1.000  Ne
  He67     1.0000 0.11131  0.08875  0.22113  Biso   1.000  He
  He68     1.0000 0.12556  0.11524  0.21236  Biso   1.000  He
  Ne68     1.0000 0.10705  0.14168  0.20433  Biso   1.000  Ne
  Ne69     1.0000 0.47386  0.38868  0.07854  Biso   1.000  Ne
  He69     1.0000 0.44915  0.37817  0.09915  Biso   1.000  He
  He70     1.0000 0.42709  0.40406  0.10529  Biso   1.000  He
  Ne70     1.0000 0.40015  0.39764  0.12551  Biso   1.000  Ne
  Ne71     1.0000 0.61862  0.66338  0.18912  Biso   1.000  Ne
  He71     1.0000 0.63287  0.68704  0.17208  Biso   1.000  He
  He72     1.0000 0.61515  0.69834  0.14394  Biso   1.000  He
  Ne72     1.0000 0.62843  0.72433  0.12822  Biso   1.000  Ne
  Ne73     1.0000 0.74595  0.86508  0.44526  Biso   1.000  Ne
  He73     1.0000 0.73361  0.89199  0.43171  Biso   1.000  He
  He74     1.0000 0.72551  0.88836  0.39974  Biso   1.000  He
  Ne74     1.0000 0.71967  0.91827  0.38978  Biso   1.000  Ne
  Ne75     1.0000 0.83113  0.40764  0.62991  Biso   1.000  Ne
  He75     1.0000 0.85785  0.39577  0.64392  Biso   1.000  He
  He76     1.0000 0.88386  0.41780  0.63769  Biso   1.000  He
  Ne76     1.0000 0.91056  0.40780  0.65632  Biso   1.000  Ne
  Ne77     1.0000 0.28043  0.57886  0.69847  Biso   1.000  Ne
  He77     1.0000 0.24814  0.56768  0.69912  Biso   1.000  He
  He78     1.0000 0.22883  0.57529  0.67151  Biso   1.000  He
  Ne78     1.0000 0.19794  0.56128  0.67330  Biso   1.000  Ne
  Ne79     1.0000 0.91037  0.81462  0.87438  Biso   1.000  Ne
  He79     1.0000 0.92254  0.79212  0.85089  Biso   1.000  He
  He80     1.0000 0.95420  0.78886  0.84907  Biso   1.000  He
  Ne80     1.0000 0.96068  0.76457  0.82830  Biso   1.000  Ne
  Ne81     1.0000 0.66718  0.56430  0.12189  Biso   1.000  Ne
  He81     1.0000 0.64198  0.55760  0.14175  Biso   1.000  He
  He82     1.0000 0.63775  0.57278  0.17085  Biso   1.000  He
  Ne82     1.0000 0.61039  0.56477  0.18418  Biso   1.000  Ne
  Ne83     1.0000 0.44223  0.05210  0.59934  Biso   1.000  Ne
  He83     1.0000 0.46222  0.04599  0.57529  Biso   1.000  He
  He84     1.0000 0.48408  0.07006  0.57090  Biso   1.000  He
  Ne84     1.0000 0.50639  0.06864  0.54442  Biso   1.000  Ne
  Ne85     1.0000 0.96602  0.04208  0.10582  Biso   1.000  Ne
  He85     1.0000 0.97663  0.05172  0.07503  Biso   1.000  He
  He86     1.0000 0.99231  0.02884  0.05495  Biso   1.000  He
  Ne86     1.0000 0.00534  0.04344  0.02844  Biso   1.000  Ne
  Ne87     1.0000 0.22479  0.91084  0.12423  Biso   1.000  Ne
  He87     1.0000 0.19272  0.91534  0.12327  Biso   1.000  He
  He88     1.0000 0.17395  0.90217  0.14571  Biso   1.000  He
  Ne88     1.0000 0.13954  0.90794  0.14176  Biso   1.000  Ne
  Ne89     1.0000 0.61011  0.12021  0.34863  Biso   1.000  Ne
  He89     1.0000 0.60649  0.10125  0.31843  Biso   1.000  He
  He90     1.0000 0.60295  0.06853  0.32332  Biso   1.000  He
  Ne90     1.0000 0.60386  0.05247  0.29156  Biso   1.000  Ne
  Ne91     1.0000 0.91735  0.92118  0.96324  Biso   1.000  Ne
  He91     1.0000 0.90823  0.88879  0.96049  Biso   1.000  He
  He92     1.0000 0.93196  0.86965  0.95854  Biso   1.000  He
  Ne92     1.0000 0.92019  0.83841  0.95307  Biso   1.000  Ne
  Ne93     1.0000 0.11099  0.93987  0.91342  Biso   1.000  Ne
  He93     1.0000 0.11785  0.91519  0.92965  Biso   1.000  He
  He94     1.0000 0.08845  0.89778  0.93313  Biso   1.000  He
  Ne94     1.0000 0.08911  0.86933  0.94807  Biso   1.000  Ne
  Ne95     1.0000 0.95220  0.92817  0.87930  Biso   1.000  Ne
  He95     1.0000 0.92921  0.91378  0.85769  Biso   1.000  He
  He96     1.0000 0.89861  0.91163  0.86852  Biso   1.000  He
  Ne96     1.0000 0.87665  0.89600  0.84784  Biso   1.000  Ne
  Ne97     1.0000 0.91156  0.92726  0.23662  Biso   1.000  Ne
  He97     1.0000 0.92719  0.90974  0.21212  Biso   1.000  He
  He98     1.0000 0.91355  0.87906  0.20481  Biso   1.000  He
  Ne98     1.0000 0.92720  0.86413  0.17762  Biso   1.000  Ne
  Ne99     1.0000 0.11253  0.93001  0.02401  Biso   1.000  Ne
  He99     1.0000 0.09128  0.92943  0.04962  Biso   1.000  He
  He100    1.0000 0.08706  0.95460  0.07024  Biso   1.000  He
  Ne100    1.0000 0.06574  0.94985  0.09404  Biso   1.000  Ne
  Ne101    1.0000 0.82752  0.05138  0.89496  Biso   1.000  Ne
  He101    1.0000 0.83891  0.06808  0.92316  Biso   1.000  He
  He102    1.0000 0.86027  0.09271  0.91517  Biso   1.000  He
  Ne102    1.0000 0.87491  0.10279  0.94465  Biso   1.000  Ne
  Ne103    1.0000 0.38396  0.66229  0.14858  Biso   1.000  Ne
  He103    1.0000 0.41668  0.65672  0.14375  Biso   1.000  He
  He104    1.0000 0.42239  0.62774  0.13141  Biso   1.000  He
  Ne104    1.0000 0.45420  0.62296  0.11577  Biso   1.000  Ne
  Ne105    1.0000 0.44515  0.04412  0.38263  Biso   1.000  Ne
  He105    1.0000 0.45892  0.03142  0.41124  Biso   1.000  He
  He106    1.0000 0.45642  0.05035  0.43823  Biso   1.000  He
  Ne106    1.0000 0.46833  0.03891  0.46654  Biso   1.000  Ne
  Ne107    1.0000 0.11420  0.82510  0.19633  Biso   1.000  Ne
  He107    1.0000 0.12587  0.85686  0.20184  Biso   1.000  He
  He108    1.0000 0.12222  0.86438  0.23236  Biso   1.000  He
  Ne108    1.0000 0.13211  0.89271  0.23972  Biso   1.000  Ne
  Ne109    1.0000 0.44041  0.68081  0.74311  Biso   1.000  Ne
  He109    1.0000 0.45062  0.70069  0.71891  Biso   1.000  He
  He110    1.0000 0.44923  0.73387  0.72751  Biso   1.000  He
  Ne110    1.0000 0.46270  0.75443  0.70337  Biso   1.000  Ne
  Ne111    1.0000 0.44442  0.16586  0.66444  Biso   1.000  Ne
  He111    1.0000 0.44755  0.16050  0.63079  Biso   1.000  He
  He112    1.0000 0.42450  0.17342  0.61109  Biso   1.000  He
  Ne112    1.0000 0.42396  0.15901  0.57837  Biso   1.000  Ne
  Ne113    1.0000 0.77737  0.37208  0.92303  Biso   1.000  Ne
  He113    1.0000 0.75819  0.39140  0.93835  Biso   1.000  He
  He114    1.0000 0.72628  0.38335  0.93092  Biso   1.000  He
  Ne114    1.0000 0.70242  0.40814  0.93593  Biso   1.000  Ne
  Ne115    1.0000 0.96816  0.58263  0.38913  Biso   1.000  Ne
  He115    1.0000 0.93961  0.56972  0.39764  Biso   1.000  He
  He116    1.0000 0.93226  0.57596  0.42933  Biso   1.000  He
  Ne116    1.0000 0.90314  0.56565  0.43949  Biso   1.000  Ne
  Ne117    1.0000 0.10169  0.37698  0.57625  Biso   1.000  Ne
  He117    1.0000 0.10751  0.34518  0.57860  Biso   1.000  He
  He118    1.0000 0.10280  0.33424  0.60887  Biso   1.000  He
  Ne118    1.0000 0.10734  0.30376  0.61367  Biso   1.000  Ne
  Ne119    1.0000 0.53638  0.01917  0.60219  Biso   1.000  Ne
  He119    1.0000 0.56702  0.02758  0.59384  Biso   1.000  He
  He120    1.0000 0.58512  0.03433  0.62074  Biso   1.000  He
  Ne120    1.0000 0.61744  0.03929  0.61354  Biso   1.000  Ne
  Ne121    1.0000 0.61520  0.36791  0.79954  Biso   1.000  Ne
  He121    1.0000 0.60292  0.38299  0.82708  Biso   1.000  He
  He122    1.0000 0.61787  0.41026  0.83573  Biso   1.000  He
  Ne122    1.0000 0.60311  0.42300  0.86201  Biso   1.000  Ne
  Ne123    1.0000 0.38339  0.40089  0.89813  Biso   1.000  Ne
  He123    1.0000 0.41119  0.41798  0.89987  Biso   1.000  He
  He124    1.0000 0.43351  0.40264  0.91758  Biso   1.000  He
  Ne124    1.0000 0.45715  0.42495  0.92090  Biso   1.000  Ne
  Ne125    1.0000 0.93178  0.65769  0.43406  Biso   1.000  Ne
  He125    1.0000 0.91522  0.68405  0.41624  Biso   1.000  He
  He126    1.0000 0.88358  0.67862  0.41888  Biso   1.000  He
  Ne126    1.0000 0.86749  0.70522  0.41948  Biso   1.000  Ne
  Ne127    1.0000 0.64937  0.90641  0.73812  Biso   1.000  Ne
  He127    1.0000 0.67894  0.90811  0.72373  Biso   1.000  He
  He128    1.0000 0.67957  0.89614  0.69158  Biso   1.000  He
  Ne128    1.0000 0.70603  0.90115  0.67610  Biso   1.000  Ne
  Ne129    1.0000 0.63118  0.29621  0.19070  Biso   1.000  Ne
  He129    1.0000 0.61033  0.29677  0.16862  Biso   1.000  He
  He130    1.0000 0.62020  0.28424  0.13845  Biso   1.000  He
  Ne130    1.0000 0.60309  0.28945  0.11174  Biso   1.000  Ne
  Ne131    1.0000 0.14411  0.40488  0.36993  Biso   1.000  Ne
  He131    1.0000 0.14912  0.38151  0.34498  Biso   1.000  He
  He132    1.0000 0.13819  0.39016  0.31595  Biso   1.000  He
  Ne132    1.0000 0.10712  0.37870  0.31094  Biso   1.000  Ne
  Ne133    1.0000 0.63632  0.93627  0.58017  Biso   1.000  Ne
  He133    1.0000 0.61059  0.92485  0.59808  Biso   1.000  He
  He134    1.0000 0.61999  0.89986  0.61848  Biso   1.000  He
  Ne134    1.0000 0.60112  0.89792  0.64542  Biso   1.000  Ne
  Ne135    1.0000 0.16856  0.06113  0.93044  Biso   1.000  Ne
  He135    1.0000 0.14000  0.06066  0.91269  Biso   1.000  He
  He136    1.0000 0.13799  0.08163  0.88832  Biso   1.000  He
  Ne136    1.0000 0.10969  0.07696  0.87271  Biso   1.000  Ne
  Ne137    1.0000 0.62925  0.17427  0.68854  Biso   1.000  Ne
  He137    1.0000 0.61448  0.16342  0.66231  Biso   1.000  He
  He138    1.0000 0.62782  0.17313  0.63356  Biso   1.000  He
  Ne138    1.0000 0.61058  0.16274  0.60720  Biso   1.000  Ne
  Ne139    1.0000 0.43567  0.54153  0.10076  Biso   1.000  Ne
  He139    1.0000 0.46681  0.52857  0.09092  Biso   1.000  He
  He140    1.0000 0.49115  0.54296  0.10792  Biso   1.000  He
  Ne140    1.0000 0.52131  0.53424  0.09983  Biso   1.000  Ne
  Ne141    1.0000 0.89258  0.91970  0.12102  Biso   1.000  Ne
  He141    1.0000 0.86136  0.92226  0.11508  Biso   1.000  He
  He142    1.0000 0.84246  0.91426  0.13898  Biso   1.000  He
  Ne142    1.0000 0.81035  0.92467  0.13568  Biso   1.000  Ne
  Ne143    1.0000 0.92982  0.21405  0.09113  Biso   1.000  Ne
  He143    1.0000 0.95169  0.18676  0.09680  Biso   1.000  He
  He144    1.0000 0.93681  0.16289  0.11588  Biso   1.000  He
  Ne144    1.0000 0.95951  0.14066  0.12560  Biso   1.000  Ne
  Ne145    1.0000 0.44899  0.91643  0.48365  Biso   1.000  Ne
  He145    1.0000 0.48081  0.91837  0.49336  Biso   1.000  He
  He146    1.0000 0.50209  0.90649  0.46934  Biso   1.000  He
  Ne146    1.0000 0.53449  0.90057  0.47897  Biso   1.000  Ne
  Ne147    1.0000 0.72891  0.07187  0.41265  Biso   1.000  Ne
  He147    1.0000 0.70140  0.07412  0.40065  Biso   1.000  He
  He148    1.0000 0.67508  0.06815  0.42092  Biso   1.000  He
  Ne148    1.0000 0.64600  0.05995  0.40350  Biso   1.000  Ne
  Ne149    1.0000 0.94687  0.34335  0.60801  Biso   1.000  Ne
  He149    1.0000 0.94182  0.31741  0.62838  Biso   1.000  He
  He150    1.0000 0.93222  0.28856  0.61457  Biso   1.000  He
  Ne150    1.0000 0.92663  0.26253  0.63839  Biso   1.000  Ne
  Ne151    1.0000 0.10983  0.14234  0.82416  Biso   1.000  Ne
  He151    1.0000 0.09272  0.12507  0.80258  Biso   1.000  He
  He152    1.0000 0.10559  0.09573  0.79284  Biso   1.000  He
  Ne152    1.0000 0.08766  0.08079  0.76731  Biso   1.000  Ne
  Ne153    1.0000 0.09927  0.40408  0.73298  Biso   1.000  Ne
  He153    1.0000 0.10727  0.37853  0.71199  Biso   1.000  He
  He154    1.0000 0.14166  0.37153  0.70506  Biso   1.000  He
  Ne154    1.0000 0.14840  0.34221  0.69003  Biso   1.000  Ne
  Ne155    1.0000 0.44556  0.14152  0.43619  Biso   1.000  Ne
  He155    1.0000 0.43926  0.12498  0.40781  Biso   1.000  He
  He156    1.0000 0.44871  0.14291  0.38148  Biso   1.000  He
  Ne156    1.0000 0.44456  0.13183  0.35043  Biso   1.000  Ne
  Ne157    1.0000 0.92969  0.57975  0.31739  Biso   1.000  Ne
  He157    1.0000 0.91600  0.57807  0.28845  Biso   1.000  He
  He158    1.0000 0.93649  0.59282  0.26581  Biso   1.000  He
  Ne158    1.0000 0.92175  0.58748  0.23680  Biso   1.000  Ne
  Ne159    1.0000 0.42298  0.12462  0.74827  Biso   1.000  Ne
  He159    1.0000 0.41328  0.10648  0.72339  Biso   1.000  He
  He160    1.0000 0.43900  0.09161  0.70730  Biso   1.000  He
  Ne160    1.0000 0.42975  0.07906  0.67720  Biso   1.000  Ne
  Ne161    1.0000 0.20555  0.68292  0.60802  Biso   1.000  Ne
  He161    1.0000 0.22295  0.65745  0.59525  Biso   1.000  He
  He162    1.0000 0.20811  0.62880  0.59662  Biso   1.000  He
  Ne162    1.0000 0.22434  0.60291  0.58416  Biso   1.000  Ne
  Ne163    1.0000 0.84249  0.84783  0.90918  Biso   1.000  Ne
  He163    1.0000 0.82416  0.87253  0.92263  Biso   1.000  He
  He164    1.0000 0.82620  0.87795  0.95616  Biso   1.000  He
  Ne164    1.0000 0.80432  0.90077  0.96913  Biso   1.000  Ne
  Ne165    1.0000 0.92468  0.31927  0.36121  Biso   1.000  Ne
  He165    1.0000 0.92127  0.31088  0.39680  Biso   1.000  He
  He166    1.0000 0.93634  0.33252  0.41719  Biso   1.000  He
  Ne166    1.0000 0.93112  0.32960  0.44866  Biso   1.000  Ne
  Ne167    1.0000 0.43119  0.65540  0.84899  Biso   1.000  Ne
  He167    1.0000 0.43368  0.62326  0.84865  Biso   1.000  He
  He168    1.0000 0.41437  0.60974  0.82531  Biso   1.000  He
  Ne168    1.0000 0.41777  0.57584  0.82697  Biso   1.000  Ne
  Ne169    1.0000 0.94334  0.11542  0.32194  Biso   1.000  Ne
  He169    1.0000 0.94505  0.08609  0.30603  Biso   1.000  He
  He170    1.0000 0.95204  0.09201  0.27671  Biso   1.000  He
  Ne170    1.0000 0.94918  0.06511  0.25437  Biso   1.000  Ne
  Ne171    1.0000 0.96000  0.96240  0.10181  Biso   1.000  Ne
  He171    1.0000 0.97867  0.93596  0.10518  Biso   1.000  He
  He172    1.0000 0.96618  0.90878  0.08804  Biso   1.000  He
  Ne172    1.0000 0.98780  0.88436  0.08733  Biso   1.000  Ne
  Ne173    1.0000 0.08372  0.03925  0.97209  Biso   1.000  Ne
  He173    1.0000 0.07851  0.06376  0.99284  Biso   1.000  He
  He174    1.0000 0.09503  0.06218  0.02576  Biso   1.000  He
  Ne174    1.0000 0.09270  0.09017  0.04629  Biso   1.000  Ne
  Ne175    1.0000 0.09702  0.28778  0.41371  Biso   1.000  Ne
  He175    1.0000 0.09196  0.26944  0.38742  Biso   1.000  He
  He176    1.0000 0.08961  0.28198  0.35964  Biso   1.000  He
  Ne176    1.0000 0.08418  0.26226  0.33517  Biso   1.000  Ne
  Ne177    1.0000 0.44740  0.80987  0.41123  Biso   1.000  Ne
  He177    1.0000 0.43281  0.84027  0.40786  Biso   1.000  He
  He178    1.0000 0.41598  0.85462  0.43403  Biso   1.000  He
  Ne178    1.0000 0.40155  0.88282  0.42811  Biso   1.000  Ne
  Ne179    1.0000 0.07015  0.40860  0.45931  Biso   1.000  Ne
  He179    1.0000 0.09082  0.43082  0.46591  Biso   1.000  He
  He180    1.0000 0.09406  0.43792  0.49943  Biso   1.000  He
  Ne180    1.0000 0.11165  0.46422  0.50887  Biso   1.000  Ne
  Ne181    1.0000 0.70342  0.84109  0.60570  Biso   1.000  Ne
  He181    1.0000 0.69142  0.81142  0.61678  Biso   1.000  He
  He182    1.0000 0.65961  0.80939  0.61417  Biso   1.000  He
  Ne182    1.0000 0.64651  0.78271  0.62904  Biso   1.000  Ne
  Ne183    1.0000 0.59063  0.05286  0.51865  Biso   1.000  Ne
  He183    1.0000 0.58618  0.04611  0.48554  Biso   1.000  He
  He184    1.0000 0.55984  0.06259  0.47230  Biso   1.000  He
  Ne184    1.0000 0.54966  0.05469  0.44007  Biso   1.000  Ne
  Ne185    1.0000 0.44835  0.85749  0.60333  Biso   1.000  Ne
  He185    1.0000 0.41976  0.84084  0.60560  Biso   1.000  He
  He186    1.0000 0.42200  0.81849  0.63023  Biso   1.000  He
  Ne186    1.0000 0.39599  0.79628  0.62906  Biso   1.000  Ne
  Ne187    1.0000 0.85062  0.58288  0.36010  Biso   1.000  Ne
  He187    1.0000 0.84084  0.58866  0.39417  Biso   1.000  He
  He188    1.0000 0.80933  0.58242  0.40361  Biso   1.000  He
  Ne188    1.0000 0.80701  0.58316  0.43791  Biso   1.000  Ne
  Ne189    1.0000 0.83405  0.15122  0.09068  Biso   1.000  Ne
  He189    1.0000 0.85495  0.12760  0.08973  Biso   1.000  He
  He190    1.0000 0.85217  0.10720  0.11531  Biso   1.000  He
  Ne190    1.0000 0.87362  0.08263  0.11347  Biso   1.000  Ne
  Ne191    1.0000 0.34519  0.37213  0.25855  Biso   1.000  Ne
  He191    1.0000 0.35999  0.34406  0.24513  Biso   1.000  He
  He192    1.0000 0.38453  0.33008  0.25996  Biso   1.000  He
  Ne192    1.0000 0.39697  0.30335  0.24477  Biso   1.000  Ne
  Ne193    1.0000 0.19152  0.35205  0.41597  Biso   1.000  Ne
  He193    1.0000 0.22118  0.36356  0.41672  Biso   1.000  He
  He194    1.0000 0.22461  0.39323  0.43166  Biso   1.000  He
  Ne194    1.0000 0.25673  0.40463  0.43427  Biso   1.000  Ne
  Ne195    1.0000 0.19280  0.35747  0.62325  Biso   1.000  Ne
  He195    1.0000 0.21843  0.36084  0.60340  Biso   1.000  He
  He196    1.0000 0.23042  0.39167  0.59899  Biso   1.000  He
  Ne196    1.0000 0.25473  0.39918  0.62121  Biso   1.000  Ne
  Ne197    1.0000 0.72088  0.19123  0.03683  Biso   1.000  Ne
  He197    1.0000 0.69595  0.20635  0.05244  Biso   1.000  He
  He198    1.0000 0.70338  0.23508  0.06949  Biso   1.000  He
  Ne198    1.0000 0.68275  0.26194  0.06566  Biso   1.000  Ne
  Ne199    1.0000 0.32515  0.13921  0.59822  Biso   1.000  Ne
  He199    1.0000 0.34848  0.11709  0.59068  Biso   1.000  He
  He200    1.0000 0.34357  0.08960  0.60832  Biso   1.000  He
  Ne200    1.0000 0.36662  0.06612  0.60628  Biso   1.000  Ne
