data_image0
_cell_length_a       46.6739
_cell_length_b       46.5449
_cell_length_c       46.6222
_cell_angle_alpha    90
_cell_angle_beta     90
_cell_angle_gamma    90

_symmetry_space_group_name_H-M    "P 1"
_symmetry_int_tables_number       1

loop_
  _symmetry_equiv_pos_as_xyz
  'x, y, z'

loop_
  _atom_site_label
  _atom_site_occupancy
  _atom_site_fract_x
  _atom_site_fract_y
  _atom_site_fract_z
  _atom_site_thermal_displace_type
  _atom_site_B_iso_or_equiv
  _atom_site_type_symbol
  Ne1      1.0000 0.10261  0.12027  0.20832  Biso   1.000  Ne
  He1      1.0000 0.12294  0.09901  0.19306  Biso   1.000  He
  He2      1.0000 0.10689  0.08011  0.17252  Biso   1.000  He
  Ne2      1.0000 0.12973  0.06054  0.15583  Biso   1.000  Ne
  Ne3      1.0000 0.06973  0.03604  0.10212  Biso   1.000  Ne
  He3      1.0000 0.09074  0.01116  0.09182  Biso   1.000  He
  He4      1.0000 0.07368  0.98390  0.08799  Biso   1.000  He
  Ne4      1.0000 0.09196  0.96066  0.07093  Biso   1.000  Ne
  Ne5      1.0000 0.45922  0.96334  0.50758  Biso   1.000  Ne
  He5      1.0000 0.45879  0.93765  0.52887  Biso   1.000  He
  He6      1.0000 0.44675  0.94926  0.55684  Biso   1.000  He
  Ne6      1.0000 0.44357  0.92579  0.58103  Biso   1.000  Ne
  Ne7      1.0000 0.44186  0.36752  0.10927  Biso   1.000  Ne
  He7      1.0000 0.44456  0.33745  0.10047  Biso   1.000  He
  He8      1.0000 0.43641  0.31533  0.12286  Biso   1.000  He
  Ne8      1.0000 0.43365  0.28465  0.11340  Biso   1.000  Ne
  Ne9      1.0000 0.13402  0.38898  0.43287  Biso   1.000  Ne
  He9      1.0000 0.16031  0.40022  0.44973  Biso   1.000  He
  He10     1.0000 0.18791  0.40259  0.43353  Biso   1.000  He
  Ne10     1.0000 0.21517  0.41591  0.45129  Biso   1.000  Ne
  Ne11     1.0000 0.42124  0.87653  0.35864  Biso   1.000  Ne
  He11     1.0000 0.43118  0.85740  0.38427  Biso   1.000  He
  He12     1.0000 0.42864  0.86916  0.41667  Biso   1.000  He
  Ne12     1.0000 0.43833  0.84999  0.44110  Biso   1.000  Ne
  Ne13     1.0000 0.41347  0.54094  0.87832  Biso   1.000  Ne
  He13     1.0000 0.42415  0.55556  0.90633  Biso   1.000  He
  He14     1.0000 0.41830  0.53508  0.93232  Biso   1.000  He
  Ne14     1.0000 0.42647  0.54981  0.95972  Biso   1.000  Ne
  Ne15     1.0000 0.63274  0.54465  0.94402  Biso   1.000  Ne
  He15     1.0000 0.62157  0.51541  0.95014  Biso   1.000  He
  He16     1.0000 0.60418  0.51131  0.97944  Biso   1.000  He
  Ne16     1.0000 0.59557  0.47991  0.98405  Biso   1.000  Ne
  Ne17     1.0000 0.81133  0.07745  0.73762  Biso   1.000  Ne
  He17     1.0000 0.80901  0.04592  0.72454  Biso   1.000  He
  He18     1.0000 0.81474  0.04521  0.69151  Biso   1.000  He
  Ne18     1.0000 0.80715  0.01222  0.67790  Biso   1.000  Ne
  Ne19     1.0000 0.35377  0.62062  0.91234  Biso   1.000  Ne
  He19     1.0000 0.38035  0.63598  0.92425  Biso   1.000  He
  He20     1.0000 0.38910  0.66736  0.91383  Biso   1.000  He
  Ne20     1.0000 0.41724  0.67695  0.93002  Biso   1.000  Ne
  Ne21     1.0000 0.24509  0.04276  0.34757  Biso   1.000  Ne
  He21     1.0000 0.23729  0.06274  0.32277  Biso   1.000  He
  He22     1.0000 0.21042  0.08269  0.32274  Biso   1.000  He
  Ne22     1.0000 0.20308  0.08956  0.29260  Biso   1.000  Ne
  Ne23     1.0000 0.09793  0.86155  0.14215  Biso   1.000  Ne
  He23     1.0000 0.12516  0.88013  0.14911  Biso   1.000  He
  He24     1.0000 0.15522  0.86431  0.15657  Biso   1.000  He
  Ne24     1.0000 0.17840  0.88615  0.17023  Biso   1.000  Ne
  Ne25     1.0000 0.90156  0.05076  0.85855  Biso   1.000  Ne
  He25     1.0000 0.90664  0.06319  0.88833  Biso   1.000  He
  He26     1.0000 0.91042  0.04168  0.91272  Biso   1.000  He
  Ne26     1.0000 0.90950  0.05563  0.94175  Biso   1.000  Ne
  Ne27     1.0000 0.61135  0.11544  0.31065  Biso   1.000  Ne
  He27     1.0000 0.62419  0.09963  0.33634  Biso   1.000  He
  He28     1.0000 0.62220  0.06835  0.32923  Biso   1.000  He
  Ne28     1.0000 0.62926  0.04844  0.35588  Biso   1.000  Ne
  Ne29     1.0000 0.87146  0.04698  0.13757  Biso   1.000  Ne
  He29     1.0000 0.88125  0.06188  0.11002  Biso   1.000  He
  He30     1.0000 0.90833  0.08005  0.11610  Biso   1.000  He
  Ne30     1.0000 0.92284  0.09536  0.09227  Biso   1.000  Ne
  Ne31     1.0000 0.95871  0.03489  0.04161  Biso   1.000  Ne
  He31     1.0000 0.97728  0.03107  0.06799  Biso   1.000  He
  He32     1.0000 0.96293  0.01967  0.09500  Biso   1.000  He
  Ne32     1.0000 0.97872  0.02425  0.12324  Biso   1.000  Ne
  Ne33     1.0000 0.91957  0.88785  0.84491  Biso   1.000  Ne
  He33     1.0000 0.89519  0.88574  0.86866  Biso   1.000  He
  He34     1.0000 0.90623  0.87467  0.89955  Biso   1.000  He
  Ne34     1.0000 0.88302  0.87725  0.92388  Biso   1.000  Ne
  Ne35     1.0000 0.94253  0.14561  0.17832  Biso   1.000  Ne
  He35     1.0000 0.93186  0.15249  0.14821  Biso   1.000  He
  He36     1.0000 0.91016  0.17839  0.15218  Biso   1.000  He
  Ne36     1.0000 0.89830  0.18554  0.12255  Biso   1.000  Ne
  Ne37     1.0000 0.22023  0.07058  0.95408  Biso   1.000  Ne
  He37     1.0000 0.18809  0.06898  0.94811  Biso   1.000  He
  He38     1.0000 0.18253  0.06451  0.91468  Biso   1.000  He
  Ne38     1.0000 0.15339  0.07388  0.90588  Biso   1.000  Ne
  Ne39     1.0000 0.44177  0.40557  0.21390  Biso   1.000  Ne
  He39     1.0000 0.40998  0.41212  0.21849  Biso   1.000  He
  He40     1.0000 0.38820  0.39338  0.20031  Biso   1.000  He
  Ne40     1.0000 0.35745  0.39937  0.20483  Biso   1.000  Ne
  Ne41     1.0000 0.66930  0.32248  0.91962  Biso   1.000  Ne
  He41     1.0000 0.64390  0.30325  0.93139  Biso   1.000  He
  He42     1.0000 0.65396  0.27082  0.93324  Biso   1.000  He
  Ne42     1.0000 0.62968  0.25348  0.94914  Biso   1.000  Ne
  Ne43     1.0000 0.18196  0.38866  0.63220  Biso   1.000  Ne
  He43     1.0000 0.14773  0.38635  0.64011  Biso   1.000  He
  He44     1.0000 0.13099  0.39171  0.61269  Biso   1.000  He
  Ne44     1.0000 0.10086  0.39546  0.61654  Biso   1.000  Ne
  Ne45     1.0000 0.67293  0.04947  0.67875  Biso   1.000  Ne
  He45     1.0000 0.63966  0.04447  0.67068  Biso   1.000  He
  He46     1.0000 0.63239  0.05930  0.64234  Biso   1.000  He
  Ne46     1.0000 0.60103  0.05553  0.63224  Biso   1.000  Ne
  Ne47     1.0000 0.09709  0.39342  0.75190  Biso   1.000  Ne
  He47     1.0000 0.11314  0.36539  0.74574  Biso   1.000  He
  He48     1.0000 0.10544  0.34853  0.71817  Biso   1.000  He
  Ne48     1.0000 0.12338  0.32329  0.71380  Biso   1.000  Ne
  Ne49     1.0000 0.34973  0.40253  0.11165  Biso   1.000  Ne
  He49     1.0000 0.32878  0.38267  0.12548  Biso   1.000  He
  He50     1.0000 0.30095  0.37626  0.10646  Biso   1.000  He
  Ne50     1.0000 0.28279  0.35522  0.12101  Biso   1.000  Ne
  Ne51     1.0000 0.96067  0.32485  0.45411  Biso   1.000  Ne
  He51     1.0000 0.95754  0.30481  0.42853  Biso   1.000  He
  He52     1.0000 0.92607  0.29056  0.42702  Biso   1.000  He
  Ne52     1.0000 0.92401  0.26814  0.40063  Biso   1.000  Ne
  Ne53     1.0000 0.04759  0.55426  0.47942  Biso   1.000  Ne
  He53     1.0000 0.08162  0.54558  0.47911  Biso   1.000  He
  He54     1.0000 0.09843  0.55155  0.45022  Biso   1.000  He
  Ne54     1.0000 0.13087  0.54308  0.44941  Biso   1.000  Ne
  Ne55     1.0000 0.74772  0.13256  0.59645  Biso   1.000  Ne
  He55     1.0000 0.72792  0.16013  0.59214  Biso   1.000  He
  He56     1.0000 0.70872  0.17042  0.61722  Biso   1.000  He
  Ne56     1.0000 0.70042  0.19990  0.61146  Biso   1.000  Ne
  Ne57     1.0000 0.92722  0.38228  0.38630  Biso   1.000  Ne
  He57     1.0000 0.93978  0.37080  0.35810  Biso   1.000  He
  He58     1.0000 0.93361  0.39129  0.33499  Biso   1.000  He
  Ne58     1.0000 0.94761  0.38133  0.30454  Biso   1.000  Ne
  Ne59     1.0000 0.11713  0.72699  0.05869  Biso   1.000  Ne
  He59     1.0000 0.11707  0.75318  0.08082  Biso   1.000  He
  He60     1.0000 0.14499  0.77203  0.08888  Biso   1.000  He
  Ne60     1.0000 0.14285  0.79193  0.11412  Biso   1.000  Ne
