data_image0
_cell_length_a       46.9748
_cell_length_b       46.9706
_cell_length_c       46.4596
_cell_angle_alpha    90
_cell_angle_beta     90
_cell_angle_gamma    90

_symmetry_space_group_name_H-M    "P 1"
_symmetry_int_tables_number       1

loop_
  _symmetry_equiv_pos_as_xyz
  'x, y, z'

loop_
  _atom_site_label
  _atom_site_occupancy
  _atom_site_fract_x
  _atom_site_fract_y
  _atom_site_fract_z
  _atom_site_thermal_displace_type
  _atom_site_B_iso_or_equiv
  _atom_site_type_symbol
  Ne1      1.0000 0.92815  0.81256  0.15862  Biso   1.000  Ne
  He1      1.0000 0.93475  0.81602  0.12506  Biso   1.000  He
  He2      1.0000 0.95788  0.79276  0.11759  Biso   1.000  He
  Ne2      1.0000 0.96453  0.78983  0.08381  Biso   1.000  Ne
  Ne3      1.0000 0.10442  0.21262  0.38351  Biso   1.000  Ne
  He3      1.0000 0.11990  0.24047  0.39808  Biso   1.000  He
  He4      1.0000 0.15096  0.24363  0.39094  Biso   1.000  He
  Ne4      1.0000 0.16353  0.26571  0.40874  Biso   1.000  Ne
  Ne5      1.0000 0.77877  0.90908  0.61071  Biso   1.000  Ne
  He5      1.0000 0.74974  0.89210  0.60529  Biso   1.000  He
  He6      1.0000 0.73523  0.89766  0.57720  Biso   1.000  He
  Ne6      1.0000 0.70635  0.88292  0.57574  Biso   1.000  Ne
  Ne7      1.0000 0.64186  0.91163  0.29851  Biso   1.000  Ne
  He7      1.0000 0.63541  0.88363  0.28080  Biso   1.000  He
  He8      1.0000 0.64523  0.85421  0.29317  Biso   1.000  He
  Ne8      1.0000 0.62805  0.82832  0.28107  Biso   1.000  Ne
  Ne9      1.0000 0.00932  0.04317  0.98629  Biso   1.000  Ne
  He9      1.0000 0.97860  0.04000  0.97615  Biso   1.000  He
  He10     1.0000 0.97251  0.01312  0.96247  Biso   1.000  He
  Ne10     1.0000 0.94311  0.00822  0.94903  Biso   1.000  Ne
  Ne11     1.0000 0.97971  0.50173  0.54528  Biso   1.000  Ne
  He11     1.0000 0.99928  0.48555  0.56534  Biso   1.000  He
  He12     1.0000 0.03076  0.48500  0.55874  Biso   1.000  He
  Ne12     1.0000 0.04807  0.46634  0.57968  Biso   1.000  Ne
  Ne13     1.0000 0.15383  0.11453  0.81024  Biso   1.000  Ne
  He13     1.0000 0.18028  0.12106  0.79085  Biso   1.000  He
  He14     1.0000 0.20438  0.09944  0.79124  Biso   1.000  He
  Ne14     1.0000 0.23301  0.10226  0.77152  Biso   1.000  Ne
  Ne15     1.0000 0.67742  0.62133  0.06209  Biso   1.000  Ne
  He15     1.0000 0.67610  0.60099  0.08516  Biso   1.000  He
  He16     1.0000 0.70548  0.59875  0.10053  Biso   1.000  He
  Ne16     1.0000 0.70291  0.57974  0.12885  Biso   1.000  Ne
  Ne17     1.0000 0.10577  0.52220  0.53615  Biso   1.000  Ne
  He17     1.0000 0.10250  0.54174  0.56337  Biso   1.000  He
  He18     1.0000 0.12849  0.53634  0.58400  Biso   1.000  He
  Ne18     1.0000 0.12402  0.55056  0.61366  Biso   1.000  Ne
  Ne19     1.0000 0.59510  0.58230  0.04902  Biso   1.000  Ne
  He19     1.0000 0.60181  0.55184  0.06669  Biso   1.000  He
  He20     1.0000 0.57827  0.54240  0.08347  Biso   1.000  He
  Ne20     1.0000 0.57983  0.51304  0.09578  Biso   1.000  Ne
  Ne21     1.0000 0.34662  0.08805  0.35351  Biso   1.000  Ne
  He21     1.0000 0.32600  0.07691  0.32924  Biso   1.000  He
  He22     1.0000 0.33544  0.07724  0.29824  Biso   1.000  He
  Ne22     1.0000 0.31206  0.06290  0.27754  Biso   1.000  Ne
  Ne23     1.0000 0.45447  0.04070  0.22965  Biso   1.000  Ne
  He23     1.0000 0.43709  0.05136  0.25779  Biso   1.000  He
  He24     1.0000 0.45215  0.04740  0.28566  Biso   1.000  He
  Ne24     1.0000 0.43060  0.05797  0.31179  Biso   1.000  Ne
  Ne25     1.0000 0.91189  0.64787  0.60816  Biso   1.000  Ne
  He25     1.0000 0.93465  0.63632  0.58671  Biso   1.000  He
  He26     1.0000 0.93419  0.60356  0.58535  Biso   1.000  He
  Ne26     1.0000 0.95259  0.59024  0.56070  Biso   1.000  Ne
  Ne27     1.0000 0.18918  0.89097  0.07581  Biso   1.000  Ne
  He27     1.0000 0.15727  0.88081  0.07328  Biso   1.000  He
  He28     1.0000 0.15478  0.84902  0.06963  Biso   1.000  He
  Ne28     1.0000 0.12234  0.83913  0.06568  Biso   1.000  Ne
  Ne29     1.0000 0.65997  0.25762  0.91330  Biso   1.000  Ne
  He29     1.0000 0.66972  0.23728  0.88782  Biso   1.000  He
  He30     1.0000 0.64342  0.22070  0.87622  Biso   1.000  He
  Ne30     1.0000 0.65121  0.20112  0.85138  Biso   1.000  Ne
  Ne31     1.0000 0.58899  0.38790  0.09475  Biso   1.000  Ne
  He31     1.0000 0.60869  0.39902  0.12269  Biso   1.000  He
  He32     1.0000 0.59789  0.39121  0.15413  Biso   1.000  He
  Ne32     1.0000 0.60673  0.36112  0.16481  Biso   1.000  Ne
  Ne33     1.0000 0.46094  0.54817  0.82383  Biso   1.000  Ne
  He33     1.0000 0.43000  0.55073  0.80888  Biso   1.000  He
  He34     1.0000 0.40523  0.55905  0.82941  Biso   1.000  He
  Ne34     1.0000 0.37529  0.55912  0.81769  Biso   1.000  Ne
  Ne35     1.0000 0.46078  0.24131  0.17518  Biso   1.000  Ne
  He35     1.0000 0.44979  0.24265  0.14299  Biso   1.000  He
  He36     1.0000 0.44586  0.27220  0.13191  Biso   1.000  He
  Ne36     1.0000 0.43890  0.27387  0.09971  Biso   1.000  Ne
  Ne37     1.0000 0.24463  0.92759  0.83876  Biso   1.000  Ne
  He37     1.0000 0.26233  0.91414  0.81509  Biso   1.000  He
  He38     1.0000 0.29003  0.92928  0.80861  Biso   1.000  He
  Ne38     1.0000 0.30892  0.90992  0.78939  Biso   1.000  Ne
  Ne39     1.0000 0.30594  0.88975  0.39959  Biso   1.000  Ne
  He39     1.0000 0.33640  0.89538  0.41017  Biso   1.000  He
  He40     1.0000 0.35911  0.87395  0.40518  Biso   1.000  He
  Ne40     1.0000 0.38895  0.88433  0.41139  Biso   1.000  Ne
  Ne41     1.0000 0.46158  0.87714  0.34534  Biso   1.000  Ne
  He41     1.0000 0.46027  0.85950  0.37341  Biso   1.000  He
  He42     1.0000 0.46907  0.87486  0.39929  Biso   1.000  He
  Ne42     1.0000 0.46631  0.85675  0.42702  Biso   1.000  Ne
  Ne43     1.0000 0.60975  0.64584  0.91038  Biso   1.000  Ne
  He43     1.0000 0.60140  0.64460  0.87807  Biso   1.000  He
  He44     1.0000 0.61765  0.66460  0.85560  Biso   1.000  He
  Ne44     1.0000 0.60867  0.66206  0.82202  Biso   1.000  Ne
  Ne45     1.0000 0.64741  0.35800  0.91387  Biso   1.000  Ne
  He45     1.0000 0.65611  0.38872  0.90221  Biso   1.000  He
  He46     1.0000 0.64268  0.39626  0.87244  Biso   1.000  He
  Ne46     1.0000 0.61262  0.41272  0.87450  Biso   1.000  Ne
  Ne47     1.0000 0.44874  0.74345  0.23080  Biso   1.000  Ne
  He47     1.0000 0.45184  0.72873  0.19932  Biso   1.000  He
  He48     1.0000 0.44720  0.74636  0.17329  Biso   1.000  He
  Ne48     1.0000 0.45207  0.72702  0.14548  Biso   1.000  Ne
  Ne49     1.0000 0.11956  0.40332  0.53899  Biso   1.000  Ne
  He49     1.0000 0.08710  0.40030  0.53156  Biso   1.000  He
  He50     1.0000 0.07923  0.39521  0.49914  Biso   1.000  He
  Ne50     1.0000 0.04444  0.39042  0.49735  Biso   1.000  Ne
  Ne51     1.0000 0.89812  0.55417  0.79248  Biso   1.000  Ne
  He51     1.0000 0.88120  0.54939  0.76447  Biso   1.000  He
  He52     1.0000 0.84932  0.55717  0.76514  Biso   1.000  He
  Ne52     1.0000 0.83319  0.55069  0.73776  Biso   1.000  Ne
  Ne53     1.0000 0.34616  0.59218  0.88239  Biso   1.000  Ne
  He53     1.0000 0.37182  0.60019  0.89768  Biso   1.000  He
  He54     1.0000 0.37278  0.63533  0.89933  Biso   1.000  He
  Ne54     1.0000 0.39738  0.64782  0.91936  Biso   1.000  Ne
  Ne55     1.0000 0.07207  0.52897  0.41415  Biso   1.000  Ne
  He55     1.0000 0.09536  0.54802  0.40100  Biso   1.000  He
  He56     1.0000 0.12587  0.54197  0.41572  Biso   1.000  He
  Ne56     1.0000 0.15308  0.55800  0.40532  Biso   1.000  Ne
  Ne57     1.0000 0.47106  0.56252  0.16087  Biso   1.000  Ne
  He57     1.0000 0.46860  0.59569  0.15993  Biso   1.000  He
  He58     1.0000 0.45949  0.61294  0.18565  Biso   1.000  He
  Ne58     1.0000 0.45682  0.64663  0.17965  Biso   1.000  Ne
  Ne59     1.0000 0.16899  0.69997  0.21521  Biso   1.000  Ne
  He59     1.0000 0.14382  0.67895  0.21368  Biso   1.000  He
  He60     1.0000 0.11914  0.69609  0.23240  Biso   1.000  He
  Ne60     1.0000 0.09350  0.67735  0.24097  Biso   1.000  Ne
  Ne61     1.0000 0.61950  0.09157  0.27828  Biso   1.000  Ne
  He61     1.0000 0.62594  0.09558  0.30929  Biso   1.000  He
  He62     1.0000 0.61787  0.06846  0.32757  Biso   1.000  He
  Ne62     1.0000 0.63195  0.06686  0.35875  Biso   1.000  Ne
  Ne63     1.0000 0.94308  0.28421  0.65942  Biso   1.000  Ne
  He63     1.0000 0.93364  0.29733  0.62918  Biso   1.000  He
  He64     1.0000 0.95394  0.29389  0.60376  Biso   1.000  He
  Ne64     1.0000 0.94614  0.30578  0.57412  Biso   1.000  Ne
  Ne65     1.0000 0.35070  0.81949  0.58707  Biso   1.000  Ne
  He65     1.0000 0.37247  0.80668  0.60533  Biso   1.000  He
  He66     1.0000 0.40378  0.81023  0.59501  Biso   1.000  He
  Ne66     1.0000 0.42556  0.79765  0.61703  Biso   1.000  Ne
  Ne67     1.0000 0.95714  0.75484  0.28031  Biso   1.000  Ne
  He67     1.0000 0.94919  0.74626  0.30945  Biso   1.000  He
  He68     1.0000 0.96315  0.71739  0.31897  Biso   1.000  He
  Ne68     1.0000 0.95191  0.70662  0.34882  Biso   1.000  Ne
  Ne69     1.0000 0.37469  0.06991  0.65468  Biso   1.000  Ne
  He69     1.0000 0.41006  0.07466  0.66037  Biso   1.000  He
  He70     1.0000 0.41602  0.10587  0.66983  Biso   1.000  He
  Ne70     1.0000 0.44980  0.11059  0.67242  Biso   1.000  Ne
  Ne71     1.0000 0.12393  0.33952  0.33604  Biso   1.000  Ne
  He71     1.0000 0.13808  0.32333  0.31252  Biso   1.000  He
  He72     1.0000 0.13017  0.28956  0.31046  Biso   1.000  He
  Ne72     1.0000 0.14715  0.27253  0.28670  Biso   1.000  Ne
  Ne73     1.0000 0.13355  0.78848  0.89800  Biso   1.000  Ne
  He73     1.0000 0.13715  0.82075  0.89180  Biso   1.000  He
  He74     1.0000 0.16090  0.83307  0.90977  Biso   1.000  He
  Ne74     1.0000 0.16365  0.86713  0.90435  Biso   1.000  Ne
  Ne75     1.0000 0.39467  0.42230  0.10092  Biso   1.000  Ne
  He75     1.0000 0.42530  0.41399  0.08796  Biso   1.000  He
  He76     1.0000 0.43148  0.38128  0.08789  Biso   1.000  He
  Ne76     1.0000 0.45900  0.37060  0.07366  Biso   1.000  Ne
  Ne77     1.0000 0.12356  0.36105  0.42508  Biso   1.000  Ne
  He77     1.0000 0.10639  0.38717  0.41926  Biso   1.000  He
  He78     1.0000 0.12052  0.41527  0.43240  Biso   1.000  He
  Ne78     1.0000 0.09924  0.44027  0.42451  Biso   1.000  Ne
  Ne79     1.0000 0.62997  0.33150  0.81355  Biso   1.000  Ne
  He79     1.0000 0.66101  0.34183  0.81113  Biso   1.000  He
  He80     1.0000 0.66526  0.36524  0.78960  Biso   1.000  He
  Ne80     1.0000 0.69435  0.37916  0.78647  Biso   1.000  Ne
  Ne81     1.0000 0.62411  0.64450  0.14944  Biso   1.000  Ne
  He81     1.0000 0.64001  0.62661  0.17508  Biso   1.000  He
  He82     1.0000 0.62487  0.59641  0.17871  Biso   1.000  He
  Ne82     1.0000 0.64158  0.57463  0.19693  Biso   1.000  Ne
  Ne83     1.0000 0.47866  0.04632  0.60728  Biso   1.000  Ne
  He83     1.0000 0.45737  0.03412  0.58723  Biso   1.000  He
  He84     1.0000 0.46041  0.04282  0.55503  Biso   1.000  He
  Ne84     1.0000 0.43306  0.03193  0.53829  Biso   1.000  Ne
  Ne85     1.0000 0.17465  0.40093  0.29926  Biso   1.000  Ne
  He85     1.0000 0.15755  0.40898  0.27198  Biso   1.000  He
  He86     1.0000 0.12371  0.40763  0.27834  Biso   1.000  He
  Ne86     1.0000 0.10378  0.41478  0.25200  Biso   1.000  Ne
  Ne87     1.0000 0.83762  0.88493  0.93566  Biso   1.000  Ne
  He87     1.0000 0.80691  0.88035  0.92347  Biso   1.000  He
  He88     1.0000 0.77999  0.88135  0.94599  Biso   1.000  He
  Ne88     1.0000 0.74810  0.87890  0.93189  Biso   1.000  Ne
  Ne89     1.0000 0.73881  0.90208  0.41251  Biso   1.000  Ne
  He89     1.0000 0.70657  0.90616  0.41339  Biso   1.000  He
  He90     1.0000 0.69478  0.91256  0.38145  Biso   1.000  He
  Ne90     1.0000 0.66029  0.91876  0.38076  Biso   1.000  Ne
  Ne91     1.0000 0.68150  0.77019  0.58720  Biso   1.000  Ne
  He91     1.0000 0.68884  0.77817  0.61947  Biso   1.000  He
  He92     1.0000 0.71910  0.78518  0.62605  Biso   1.000  He
  Ne92     1.0000 0.72481  0.80697  0.65320  Biso   1.000  Ne
  Ne93     1.0000 0.94253  0.79344  0.92509  Biso   1.000  Ne
  He93     1.0000 0.91621  0.77774  0.91752  Biso   1.000  He
  He94     1.0000 0.88993  0.79733  0.91160  Biso   1.000  He
  Ne94     1.0000 0.86151  0.77842  0.90981  Biso   1.000  Ne
  Ne95     1.0000 0.90600  0.07043  0.15030  Biso   1.000  Ne
  He95     1.0000 0.89420  0.09147  0.12575  Biso   1.000  He
  He96     1.0000 0.87277  0.07723  0.10466  Biso   1.000  He
  Ne96     1.0000 0.86193  0.09749  0.08035  Biso   1.000  Ne
  Ne97     1.0000 0.65815  0.07128  0.44310  Biso   1.000  Ne
  He97     1.0000 0.65453  0.09778  0.42205  Biso   1.000  He
  He98     1.0000 0.62604  0.11561  0.43077  Biso   1.000  He
  Ne98     1.0000 0.61804  0.13639  0.40690  Biso   1.000  Ne
  Ne99     1.0000 0.46887  0.23224  0.40851  Biso   1.000  Ne
  He99     1.0000 0.46602  0.20556  0.38931  Biso   1.000  He
  He100    1.0000 0.46481  0.17596  0.40332  Biso   1.000  He
  Ne100    1.0000 0.45881  0.15571  0.37746  Biso   1.000  Ne
  Ne101    1.0000 0.86558  0.15769  0.89952  Biso   1.000  Ne
  He101    1.0000 0.88786  0.13529  0.89477  Biso   1.000  He
  He102    1.0000 0.87916  0.10759  0.91274  Biso   1.000  He
  Ne102    1.0000 0.90493  0.08472  0.91010  Biso   1.000  Ne
  Ne103    1.0000 0.38343  0.14336  0.57066  Biso   1.000  Ne
  He103    1.0000 0.38368  0.11177  0.57794  Biso   1.000  He
  He104    1.0000 0.35329  0.09601  0.57429  Biso   1.000  He
  Ne104    1.0000 0.35134  0.06420  0.58124  Biso   1.000  Ne
  Ne105    1.0000 0.97264  0.90485  0.10142  Biso   1.000  Ne
  He105    1.0000 0.94217  0.89945  0.08811  Biso   1.000  He
  He106    1.0000 0.91881  0.90574  0.10960  Biso   1.000  He
  Ne106    1.0000 0.88842  0.91436  0.09829  Biso   1.000  Ne
  Ne107    1.0000 0.96705  0.27888  0.38657  Biso   1.000  Ne
  He107    1.0000 0.95366  0.30819  0.38480  Biso   1.000  He
  He108    1.0000 0.97081  0.33171  0.40268  Biso   1.000  He
  Ne108    1.0000 0.95808  0.36327  0.40937  Biso   1.000  Ne
  Ne109    1.0000 0.34692  0.89866  0.64332  Biso   1.000  Ne
  He109    1.0000 0.34152  0.90772  0.60965  Biso   1.000  He
  He110    1.0000 0.31002  0.90291  0.60076  Biso   1.000  He
  Ne110    1.0000 0.30259  0.91772  0.57036  Biso   1.000  Ne
  Ne111    1.0000 0.16869  0.05358  0.08833  Biso   1.000  Ne
  He111    1.0000 0.13689  0.05143  0.07782  Biso   1.000  He
  He112    1.0000 0.11918  0.07807  0.07581  Biso   1.000  He
  Ne112    1.0000 0.08888  0.07379  0.06825  Biso   1.000  Ne
  Ne113    1.0000 0.12121  0.91302  0.19368  Biso   1.000  Ne
  He113    1.0000 0.10847  0.88375  0.18527  Biso   1.000  He
  He114    1.0000 0.13487  0.86474  0.17249  Biso   1.000  He
  Ne114    1.0000 0.12558  0.83580  0.16090  Biso   1.000  Ne
  Ne115    1.0000 0.59770  0.73233  0.33292  Biso   1.000  Ne
  He115    1.0000 0.60351  0.70589  0.31405  Biso   1.000  He
  He116    1.0000 0.57714  0.68699  0.31660  Biso   1.000  He
  Ne116    1.0000 0.57277  0.66102  0.29569  Biso   1.000  Ne
  Ne117    1.0000 0.57223  0.89417  0.45660  Biso   1.000  Ne
  He117    1.0000 0.57682  0.92608  0.45433  Biso   1.000  He
  He118    1.0000 0.60843  0.93161  0.44953  Biso   1.000  He
  Ne118    1.0000 0.61847  0.96371  0.44282  Biso   1.000  Ne
  Ne119    1.0000 0.43602  0.93134  0.55920  Biso   1.000  Ne
  He119    1.0000 0.43686  0.90470  0.58129  Biso   1.000  He
  He120    1.0000 0.44022  0.91250  0.61202  Biso   1.000  He
  Ne120    1.0000 0.44297  0.88497  0.63161  Biso   1.000  Ne
  Ne121    1.0000 0.88779  0.04488  0.80651  Biso   1.000  Ne
  He121    1.0000 0.90147  0.07073  0.81963  Biso   1.000  He
  He122    1.0000 0.93418  0.07319  0.82127  Biso   1.000  He
  Ne122    1.0000 0.94455  0.10088  0.83355  Biso   1.000  Ne
  Ne123    1.0000 0.49661  0.16780  0.18990  Biso   1.000  Ne
  He123    1.0000 0.47606  0.16904  0.21486  Biso   1.000  He
  He124    1.0000 0.48661  0.14663  0.23845  Biso   1.000  He
  Ne124    1.0000 0.46525  0.14393  0.26586  Biso   1.000  Ne
  Ne125    1.0000 0.12536  0.37668  0.62610  Biso   1.000  Ne
  He125    1.0000 0.11092  0.35008  0.64184  Biso   1.000  He
  He126    1.0000 0.13190  0.32766  0.65908  Biso   1.000  He
  Ne126    1.0000 0.11589  0.30003  0.66842  Biso   1.000  Ne
  Ne127    1.0000 0.16908  0.69612  0.40443  Biso   1.000  Ne
  He127    1.0000 0.13863  0.68096  0.39792  Biso   1.000  He
  He128    1.0000 0.11582  0.68193  0.42177  Biso   1.000  He
  Ne128    1.0000 0.11443  0.65543  0.44068  Biso   1.000  Ne
  Ne129    1.0000 0.15744  0.71382  0.59800  Biso   1.000  Ne
  He129    1.0000 0.13246  0.69057  0.60217  Biso   1.000  He
  He130    1.0000 0.14396  0.65800  0.60029  Biso   1.000  He
  Ne130    1.0000 0.11994  0.63773  0.60100  Biso   1.000  Ne
  Ne131    1.0000 0.45278  0.07795  0.41584  Biso   1.000  Ne
  He131    1.0000 0.48266  0.07136  0.41797  Biso   1.000  He
  He132    1.0000 0.49469  0.06595  0.44862  Biso   1.000  He
  Ne132    1.0000 0.52667  0.05490  0.44538  Biso   1.000  Ne
  Ne133    1.0000 0.09588  0.20343  0.86511  Biso   1.000  Ne
  He133    1.0000 0.09536  0.20300  0.83143  Biso   1.000  He
  He134    1.0000 0.10786  0.17508  0.81969  Biso   1.000  He
  Ne134    1.0000 0.10773  0.17607  0.78550  Biso   1.000  Ne
  Ne135    1.0000 0.11421  0.89104  0.78574  Biso   1.000  Ne
  He135    1.0000 0.14759  0.88884  0.78525  Biso   1.000  He
  He136    1.0000 0.16143  0.87029  0.81139  Biso   1.000  He
  Ne136    1.0000 0.19253  0.86787  0.80932  Biso   1.000  Ne
  Ne137    1.0000 0.90204  0.38692  0.56661  Biso   1.000  Ne
  He137    1.0000 0.88542  0.36138  0.58242  Biso   1.000  He
  He138    1.0000 0.85417  0.36750  0.58986  Biso   1.000  He
  Ne138    1.0000 0.83520  0.34137  0.59081  Biso   1.000  Ne
  Ne139    1.0000 0.12041  0.60845  0.33119  Biso   1.000  Ne
  He139    1.0000 0.15252  0.60773  0.33565  Biso   1.000  He
  He140    1.0000 0.16949  0.63649  0.32380  Biso   1.000  He
  Ne140    1.0000 0.20181  0.63327  0.32206  Biso   1.000  Ne
  Ne141    1.0000 0.52411  0.41513  0.92972  Biso   1.000  Ne
  He141    1.0000 0.49315  0.40758  0.91746  Biso   1.000  He
  He142    1.0000 0.46907  0.40483  0.94290  Biso   1.000  He
  Ne142    1.0000 0.43991  0.39991  0.93274  Biso   1.000  Ne
  Ne143    1.0000 0.94509  0.93175  0.97978  Biso   1.000  Ne
  He143    1.0000 0.94542  0.90409  0.96198  Biso   1.000  He
  He144    1.0000 0.96999  0.90297  0.94151  Biso   1.000  He
  Ne144    1.0000 0.96817  0.88100  0.91600  Biso   1.000  Ne
  Ne145    1.0000 0.95185  0.98696  0.04684  Biso   1.000  Ne
  He145    1.0000 0.93766  0.01576  0.05084  Biso   1.000  He
  He146    1.0000 0.96056  0.03718  0.06395  Biso   1.000  He
  Ne146    1.0000 0.95398  0.06769  0.07030  Biso   1.000  Ne
  Ne147    1.0000 0.47840  0.56864  0.07944  Biso   1.000  Ne
  He147    1.0000 0.46039  0.54314  0.06727  Biso   1.000  He
  He148    1.0000 0.47778  0.52769  0.04073  Biso   1.000  He
  Ne148    1.0000 0.46405  0.49860  0.03144  Biso   1.000  Ne
  Ne149    1.0000 0.24361  0.39600  0.57721  Biso   1.000  Ne
  He149    1.0000 0.23785  0.36255  0.58378  Biso   1.000  He
  He150    1.0000 0.21203  0.36117  0.60552  Biso   1.000  He
  Ne150    1.0000 0.20495  0.33100  0.61514  Biso   1.000  Ne
  Ne151    1.0000 0.13662  0.24428  0.05727  Biso   1.000  Ne
  He151    1.0000 0.12367  0.23510  0.08757  Biso   1.000  He
  He152    1.0000 0.11521  0.26059  0.10715  Biso   1.000  He
  Ne152    1.0000 0.10061  0.25318  0.13679  Biso   1.000  Ne
  Ne153    1.0000 0.45559  0.39038  0.83962  Biso   1.000  Ne
  He153    1.0000 0.45498  0.36450  0.81941  Biso   1.000  He
  He154    1.0000 0.44825  0.33740  0.83149  Biso   1.000  He
  Ne154    1.0000 0.44532  0.31294  0.81010  Biso   1.000  Ne
  Ne155    1.0000 0.28106  0.37136  0.37557  Biso   1.000  Ne
  He155    1.0000 0.26422  0.39331  0.39155  Biso   1.000  He
  He156    1.0000 0.23587  0.38254  0.40369  Biso   1.000  He
  Ne156    1.0000 0.21965  0.40623  0.41695  Biso   1.000  Ne
  Ne157    1.0000 0.12787  0.58643  0.72518  Biso   1.000  Ne
  He157    1.0000 0.14666  0.55938  0.72152  Biso   1.000  He
  He158    1.0000 0.16569  0.55736  0.69243  Biso   1.000  He
  Ne158    1.0000 0.18213  0.52955  0.69121  Biso   1.000  Ne
  Ne159    1.0000 0.89026  0.40186  0.29584  Biso   1.000  Ne
  He159    1.0000 0.87002  0.40082  0.32035  Biso   1.000  He
  He160    1.0000 0.88598  0.38676  0.34739  Biso   1.000  He
  Ne160    1.0000 0.86685  0.38121  0.37268  Biso   1.000  Ne
  Ne161    1.0000 0.56992  0.52137  0.90378  Biso   1.000  Ne
  He161    1.0000 0.59345  0.54304  0.90517  Biso   1.000  He
  He162    1.0000 0.60799  0.54358  0.93662  Biso   1.000  He
  Ne162    1.0000 0.63673  0.55961  0.93994  Biso   1.000  Ne
  Ne163    1.0000 0.60816  0.81491  0.58565  Biso   1.000  Ne
  He163    1.0000 0.60350  0.84586  0.57206  Biso   1.000  He
  He164    1.0000 0.59090  0.86862  0.59049  Biso   1.000  He
  Ne164    1.0000 0.58147  0.89126  0.57135  Biso   1.000  Ne
  Ne165    1.0000 0.05674  0.89815  0.96779  Biso   1.000  Ne
  He165    1.0000 0.06346  0.90334  0.93382  Biso   1.000  He
  He166    1.0000 0.07135  0.93487  0.92906  Biso   1.000  He
  Ne166    1.0000 0.08251  0.94051  0.89859  Biso   1.000  Ne
  Ne167    1.0000 0.54195  0.05913  0.52796  Biso   1.000  Ne
  He167    1.0000 0.55200  0.03617  0.54898  Biso   1.000  He
  He168    1.0000 0.54598  0.00556  0.54173  Biso   1.000  He
  Ne168    1.0000 0.55407  0.98683  0.56740  Biso   1.000  Ne
  Ne169    1.0000 0.53196  0.45110  0.05578  Biso   1.000  Ne
  He169    1.0000 0.53692  0.45936  0.02453  Biso   1.000  He
  He170    1.0000 0.56951  0.46876  0.01696  Biso   1.000  He
  Ne170    1.0000 0.57586  0.47723  0.98899  Biso   1.000  Ne
  Ne171    1.0000 0.61782  0.59670  0.26928  Biso   1.000  Ne
  He171    1.0000 0.61028  0.56255  0.26969  Biso   1.000  He
  He172    1.0000 0.59545  0.55466  0.29693  Biso   1.000  He
  Ne172    1.0000 0.58388  0.52269  0.29775  Biso   1.000  Ne
  Ne173    1.0000 0.27999  0.87111  0.11388  Biso   1.000  Ne
  He173    1.0000 0.25590  0.86904  0.13861  Biso   1.000  He
  He174    1.0000 0.23659  0.89511  0.14015  Biso   1.000  He
  Ne174    1.0000 0.21156  0.89165  0.16522  Biso   1.000  Ne
  Ne175    1.0000 0.23423  0.09859  0.91282  Biso   1.000  Ne
  He175    1.0000 0.22137  0.13030  0.91420  Biso   1.000  He
  He176    1.0000 0.18637  0.13093  0.91622  Biso   1.000  He
  Ne176    1.0000 0.17246  0.15894  0.92212  Biso   1.000  Ne
  Ne177    1.0000 0.93447  0.17003  0.26185  Biso   1.000  Ne
  He177    1.0000 0.94883  0.14294  0.24620  Biso   1.000  He
  He178    1.0000 0.94271  0.11292  0.26018  Biso   1.000  He
  Ne178    1.0000 0.95305  0.08590  0.24198  Biso   1.000  Ne
  Ne179    1.0000 0.94770  0.89407  0.84645  Biso   1.000  Ne
  He179    1.0000 0.93072  0.89330  0.81653  Biso   1.000  He
  He180    1.0000 0.94947  0.88013  0.78961  Biso   1.000  He
  Ne180    1.0000 0.93182  0.87783  0.76123  Biso   1.000  Ne
  Ne181    1.0000 0.60977  0.82167  0.36801  Biso   1.000  Ne
  He181    1.0000 0.63285  0.80685  0.38342  Biso   1.000  He
  He182    1.0000 0.63972  0.81742  0.41524  Biso   1.000  He
  Ne182    1.0000 0.66430  0.80189  0.43126  Biso   1.000  Ne
  Ne183    1.0000 0.59724  0.01687  0.18540  Biso   1.000  Ne
  He183    1.0000 0.58498  0.04400  0.17740  Biso   1.000  He
  He184    1.0000 0.59864  0.07012  0.19535  Biso   1.000  He
  Ne184    1.0000 0.57926  0.09329  0.20534  Biso   1.000  Ne
  Ne185    1.0000 0.96416  0.15242  0.07921  Biso   1.000  Ne
  He185    1.0000 0.94902  0.17889  0.09215  Biso   1.000  He
  He186    1.0000 0.93681  0.17315  0.12420  Biso   1.000  He
  Ne186    1.0000 0.91664  0.19916  0.13644  Biso   1.000  Ne
  Ne187    1.0000 0.63619  0.56551  0.82506  Biso   1.000  Ne
  He187    1.0000 0.66188  0.58658  0.82260  Biso   1.000  He
  He188    1.0000 0.67658  0.57971  0.79328  Biso   1.000  He
  Ne188    1.0000 0.69359  0.60562  0.78118  Biso   1.000  Ne
  Ne189    1.0000 0.02761  0.46670  0.47249  Biso   1.000  Ne
  He189    1.0000 0.01229  0.45006  0.45030  Biso   1.000  He
  He190    1.0000 0.98279  0.46584  0.44573  Biso   1.000  He
  Ne190    1.0000 0.96410  0.45428  0.42299  Biso   1.000  Ne
  Ne191    1.0000 0.36018  0.39279  0.93355  Biso   1.000  Ne
  He191    1.0000 0.35838  0.37593  0.90567  Biso   1.000  He
  He192    1.0000 0.37939  0.38563  0.88208  Biso   1.000  He
  Ne192    1.0000 0.37824  0.37408  0.85051  Biso   1.000  Ne
  Ne193    1.0000 0.92990  0.39006  0.68405  Biso   1.000  Ne
  He193    1.0000 0.94861  0.37652  0.66200  Biso   1.000  He
  He194    1.0000 0.95707  0.39673  0.63677  Biso   1.000  He
  Ne194    1.0000 0.97419  0.38581  0.61091  Biso   1.000  Ne
  Ne195    1.0000 0.07980  0.34366  0.80310  Biso   1.000  Ne
  He195    1.0000 0.10485  0.35798  0.78902  Biso   1.000  He
  He196    1.0000 0.10772  0.35756  0.75557  Biso   1.000  He
  Ne196    1.0000 0.13344  0.37172  0.74167  Biso   1.000  Ne
  Ne197    1.0000 0.59733  0.09379  0.58157  Biso   1.000  Ne
  He197    1.0000 0.62733  0.08511  0.59574  Biso   1.000  He
  He198    1.0000 0.62974  0.05284  0.59984  Biso   1.000  He
  Ne198    1.0000 0.65938  0.04665  0.61001  Biso   1.000  Ne
  Ne199    1.0000 0.11983  0.07923  0.17026  Biso   1.000  Ne
  He199    1.0000 0.14812  0.07958  0.18504  Biso   1.000  He
  He200    1.0000 0.17330  0.06588  0.16878  Biso   1.000  He
  Ne200    1.0000 0.20524  0.06833  0.18190  Biso   1.000  Ne
  Ne201    1.0000 0.23056  0.79717  0.09765  Biso   1.000  Ne
  He201    1.0000 0.19877  0.78779  0.09042  Biso   1.000  He
  He202    1.0000 0.18761  0.76845  0.11523  Biso   1.000  He
  Ne202    1.0000 0.15490  0.75549  0.11329  Biso   1.000  Ne
  Ne203    1.0000 0.48184  0.57674  0.95212  Biso   1.000  Ne
  He203    1.0000 0.48887  0.54410  0.94578  Biso   1.000  He
  He204    1.0000 0.46031  0.52481  0.94340  Biso   1.000  He
  Ne204    1.0000 0.46481  0.49178  0.94306  Biso   1.000  Ne
  Ne205    1.0000 0.45494  0.23432  0.57094  Biso   1.000  Ne
  He205    1.0000 0.45079  0.24433  0.60148  Biso   1.000  He
  He206    1.0000 0.42245  0.23511  0.61364  Biso   1.000  He
  Ne206    1.0000 0.41101  0.24599  0.64439  Biso   1.000  Ne
  Ne207    1.0000 0.22960  0.41392  0.99330  Biso   1.000  Ne
  He207    1.0000 0.21155  0.38569  0.99248  Biso   1.000  He
  He208    1.0000 0.21380  0.36831  0.96505  Biso   1.000  He
  Ne208    1.0000 0.23087  0.33858  0.97007  Biso   1.000  Ne
  Ne209    1.0000 0.62890  0.85305  0.68365  Biso   1.000  Ne
  He209    1.0000 0.61001  0.86566  0.71014  Biso   1.000  He
  He210    1.0000 0.61308  0.89357  0.71673  Biso   1.000  He
  Ne210    1.0000 0.59923  0.90101  0.74694  Biso   1.000  Ne
  Ne211    1.0000 0.96381  0.61285  0.72558  Biso   1.000  Ne
  He211    1.0000 0.93525  0.59823  0.71880  Biso   1.000  He
  He212    1.0000 0.92956  0.59574  0.68592  Biso   1.000  He
  Ne212    1.0000 0.94361  0.57158  0.66971  Biso   1.000  Ne
  Ne213    1.0000 0.08591  0.08673  0.94150  Biso   1.000  Ne
  He213    1.0000 0.09861  0.08740  0.91208  Biso   1.000  He
  He214    1.0000 0.09914  0.05685  0.89885  Biso   1.000  He
  Ne214    1.0000 0.11149  0.05487  0.86854  Biso   1.000  Ne
  Ne215    1.0000 0.48379  0.98420  0.42519  Biso   1.000  Ne
  He215    1.0000 0.45833  0.96414  0.43615  Biso   1.000  He
  He216    1.0000 0.47097  0.94228  0.45613  Biso   1.000  He
  Ne216    1.0000 0.44757  0.92338  0.46983  Biso   1.000  Ne
  Ne217    1.0000 0.95278  0.57215  0.41902  Biso   1.000  Ne
  He217    1.0000 0.92504  0.58495  0.40719  Biso   1.000  He
  He218    1.0000 0.90038  0.57583  0.42845  Biso   1.000  He
  Ne218    1.0000 0.87460  0.59174  0.41900  Biso   1.000  Ne
  Ne219    1.0000 0.72463  0.67521  0.85915  Biso   1.000  Ne
  He219    1.0000 0.71487  0.65767  0.88472  Biso   1.000  He
  He220    1.0000 0.72285  0.62526  0.88419  Biso   1.000  He
  Ne220    1.0000 0.70853  0.61099  0.90895  Biso   1.000  Ne
