data_image0
_cell_length_a       47.2827
_cell_length_b       46.6429
_cell_length_c       46.5511
_cell_angle_alpha    90
_cell_angle_beta     90
_cell_angle_gamma    90

_symmetry_space_group_name_H-M    "P 1"
_symmetry_int_tables_number       1

loop_
  _symmetry_equiv_pos_as_xyz
  'x, y, z'

loop_
  _atom_site_label
  _atom_site_occupancy
  _atom_site_fract_x
  _atom_site_fract_y
  _atom_site_fract_z
  _atom_site_thermal_displace_type
  _atom_site_B_iso_or_equiv
  _atom_site_type_symbol
  Ne1      1.0000 0.40973  0.58438  0.92441  Biso   1.000  Ne
  He1      1.0000 0.42067  0.61647  0.93464  Biso   1.000  He
  He2      1.0000 0.42373  0.63535  0.90991  Biso   1.000  He
  Ne2      1.0000 0.43097  0.66720  0.91551  Biso   1.000  Ne
  Ne3      1.0000 0.35118  0.43321  0.23460  Biso   1.000  Ne
  He3      1.0000 0.34821  0.40345  0.22373  Biso   1.000  He
  He4      1.0000 0.34665  0.40165  0.19191  Biso   1.000  He
  Ne4      1.0000 0.33977  0.37254  0.17771  Biso   1.000  Ne
  Ne5      1.0000 0.11907  0.07210  0.19113  Biso   1.000  Ne
  He5      1.0000 0.10512  0.07832  0.22257  Biso   1.000  He
  He6      1.0000 0.11145  0.05555  0.24543  Biso   1.000  He
  Ne6      1.0000 0.08215  0.04068  0.25558  Biso   1.000  Ne
  Ne7      1.0000 0.82308  0.40767  0.66354  Biso   1.000  Ne
  He7      1.0000 0.83966  0.40868  0.63656  Biso   1.000  He
  He8      1.0000 0.84333  0.37934  0.61985  Biso   1.000  He
  Ne8      1.0000 0.86244  0.38433  0.59496  Biso   1.000  Ne
  Ne9      1.0000 0.62972  0.89519  0.41224  Biso   1.000  Ne
  He9      1.0000 0.62180  0.86664  0.39590  Biso   1.000  He
  He10     1.0000 0.60609  0.87077  0.36495  Biso   1.000  He
  Ne10     1.0000 0.59631  0.84259  0.35105  Biso   1.000  Ne
  Ne11     1.0000 0.39032  0.19310  0.42220  Biso   1.000  Ne
  He11     1.0000 0.40880  0.16867  0.40466  Biso   1.000  He
  He12     1.0000 0.42291  0.18238  0.37504  Biso   1.000  He
  Ne12     1.0000 0.44412  0.15997  0.36031  Biso   1.000  Ne
  Ne13     1.0000 0.08725  0.35074  0.58984  Biso   1.000  Ne
  He13     1.0000 0.11275  0.36270  0.60604  Biso   1.000  He
  He14     1.0000 0.13738  0.34434  0.60035  Biso   1.000  He
  Ne14     1.0000 0.16682  0.35586  0.61220  Biso   1.000  Ne
  Ne15     1.0000 0.34831  0.06542  0.41679  Biso   1.000  Ne
  He15     1.0000 0.38099  0.07179  0.41976  Biso   1.000  He
  He16     1.0000 0.39613  0.04783  0.43560  Biso   1.000  He
  Ne16     1.0000 0.42755  0.05364  0.43612  Biso   1.000  Ne
  Ne17     1.0000 0.33765  0.58585  0.17315  Biso   1.000  Ne
  He17     1.0000 0.31387  0.58600  0.15291  Biso   1.000  He
  He18     1.0000 0.32145  0.60266  0.12434  Biso   1.000  He
  Ne18     1.0000 0.29657  0.60480  0.09924  Biso   1.000  Ne
  Ne19     1.0000 0.57823  0.58529  0.82338  Biso   1.000  Ne
  He19     1.0000 0.60692  0.57755  0.80980  Biso   1.000  He
  He20     1.0000 0.61736  0.59985  0.78863  Biso   1.000  He
  Ne20     1.0000 0.64843  0.59085  0.77702  Biso   1.000  Ne
  Ne21     1.0000 0.09359  0.63116  0.28890  Biso   1.000  Ne
  He21     1.0000 0.10548  0.61697  0.31785  Biso   1.000  He
  He22     1.0000 0.10568  0.58410  0.31354  Biso   1.000  He
  Ne22     1.0000 0.13519  0.57342  0.29973  Biso   1.000  Ne
  Ne23     1.0000 0.50666  0.01929  0.58676  Biso   1.000  Ne
  He23     1.0000 0.47389  0.01763  0.58658  Biso   1.000  He
  He24     1.0000 0.45531  0.04078  0.60259  Biso   1.000  He
  Ne24     1.0000 0.41998  0.03742  0.60373  Biso   1.000  Ne
  Ne25     1.0000 0.09453  0.41289  0.45184  Biso   1.000  Ne
  He25     1.0000 0.12099  0.39973  0.43685  Biso   1.000  He
  He26     1.0000 0.15010  0.41083  0.44942  Biso   1.000  He
  Ne26     1.0000 0.17951  0.39791  0.44076  Biso   1.000  Ne
  Ne27     1.0000 0.85403  0.64545  0.42003  Biso   1.000  Ne
  He27     1.0000 0.88150  0.62683  0.41305  Biso   1.000  He
  He28     1.0000 0.90168  0.63662  0.38999  Biso   1.000  He
  Ne28     1.0000 0.92588  0.61442  0.38471  Biso   1.000  Ne
  Ne29     1.0000 0.67341  0.56459  0.85167  Biso   1.000  Ne
  He29     1.0000 0.69521  0.55435  0.87557  Biso   1.000  He
  He30     1.0000 0.68538  0.56280  0.90610  Biso   1.000  He
  Ne30     1.0000 0.71011  0.56123  0.92940  Biso   1.000  Ne
  Ne31     1.0000 0.58817  0.12748  0.64324  Biso   1.000  Ne
  He31     1.0000 0.60005  0.10648  0.61836  Biso   1.000  He
  He32     1.0000 0.62356  0.12302  0.59954  Biso   1.000  He
  Ne32     1.0000 0.63812  0.10689  0.57130  Biso   1.000  Ne
  Ne33     1.0000 0.19501  0.87780  0.93180  Biso   1.000  Ne
  He33     1.0000 0.20413  0.88837  0.90188  Biso   1.000  He
  He34     1.0000 0.18043  0.88672  0.88111  Biso   1.000  He
  Ne34     1.0000 0.19390  0.89189  0.85019  Biso   1.000  Ne
  Ne35     1.0000 0.16539  0.77372  0.94191  Biso   1.000  Ne
  He35     1.0000 0.14249  0.78659  0.92228  Biso   1.000  He
  He36     1.0000 0.11965  0.80380  0.93659  Biso   1.000  He
  Ne36     1.0000 0.09572  0.80997  0.91356  Biso   1.000  Ne
  Ne37     1.0000 0.59237  0.53016  0.07530  Biso   1.000  Ne
  He37     1.0000 0.59836  0.52844  0.04207  Biso   1.000  He
  He38     1.0000 0.58535  0.49965  0.02998  Biso   1.000  He
  Ne38     1.0000 0.59218  0.49796  0.99784  Biso   1.000  Ne
  Ne39     1.0000 0.63988  0.15107  0.33909  Biso   1.000  Ne
  He39     1.0000 0.63634  0.13612  0.36881  Biso   1.000  He
  He40     1.0000 0.61239  0.11330  0.37073  Biso   1.000  He
  Ne40     1.0000 0.60876  0.09746  0.40010  Biso   1.000  Ne
