data_image0
_cell_length_a       46.7493
_cell_length_b       46.7197
_cell_length_c       46.5848
_cell_angle_alpha    90
_cell_angle_beta     90
_cell_angle_gamma    90

_symmetry_space_group_name_H-M    "P 1"
_symmetry_int_tables_number       1

loop_
  _symmetry_equiv_pos_as_xyz
  'x, y, z'

loop_
  _atom_site_label
  _atom_site_occupancy
  _atom_site_fract_x
  _atom_site_fract_y
  _atom_site_fract_z
  _atom_site_thermal_displace_type
  _atom_site_B_iso_or_equiv
  _atom_site_type_symbol
  Ne1      1.0000 0.39750  0.61065  0.82842  Biso   1.000  Ne
  He1      1.0000 0.40513  0.62764  0.85463  Biso   1.000  He
  He2      1.0000 0.42499  0.65213  0.84883  Biso   1.000  He
  Ne2      1.0000 0.43309  0.66695  0.87565  Biso   1.000  Ne
  Ne3      1.0000 0.92035  0.40043  0.55723  Biso   1.000  Ne
  He3      1.0000 0.94258  0.42403  0.55483  Biso   1.000  He
  He4      1.0000 0.97407  0.41592  0.54670  Biso   1.000  He
  Ne4      1.0000 0.99331  0.44265  0.54405  Biso   1.000  Ne
  Ne5      1.0000 0.85184  0.39706  0.60672  Biso   1.000  Ne
  He5      1.0000 0.83573  0.39920  0.57704  Biso   1.000  He
  He6      1.0000 0.81397  0.42482  0.57712  Biso   1.000  He
  Ne6      1.0000 0.79486  0.42472  0.54878  Biso   1.000  Ne
  Ne7      1.0000 0.58555  0.65725  0.12852  Biso   1.000  Ne
  He7      1.0000 0.59152  0.67621  0.15341  Biso   1.000  He
  He8      1.0000 0.60640  0.66118  0.17751  Biso   1.000  He
  Ne8      1.0000 0.61015  0.67953  0.20584  Biso   1.000  Ne
  Ne9      1.0000 0.91988  0.30039  0.32756  Biso   1.000  Ne
  He9      1.0000 0.91841  0.32102  0.35424  Biso   1.000  He
  He10     1.0000 0.93106  0.30985  0.38373  Biso   1.000  He
  Ne10     1.0000 0.93143  0.32995  0.41012  Biso   1.000  Ne
  Ne11     1.0000 0.11306  0.07623  0.82516  Biso   1.000  Ne
  He11     1.0000 0.13601  0.08294  0.84795  Biso   1.000  He
  He12     1.0000 0.13435  0.06727  0.87828  Biso   1.000  He
  Ne12     1.0000 0.15504  0.07420  0.90030  Biso   1.000  Ne
  Ne13     1.0000 0.15044  0.93162  0.91507  Biso   1.000  Ne
  He13     1.0000 0.12139  0.92072  0.90598  Biso   1.000  He
  He14     1.0000 0.10905  0.93336  0.87700  Biso   1.000  He
  Ne14     1.0000 0.07792  0.92096  0.86691  Biso   1.000  Ne
  Ne15     1.0000 0.39369  0.08393  0.29909  Biso   1.000  Ne
  He15     1.0000 0.39571  0.11593  0.28907  Biso   1.000  He
  He16     1.0000 0.42035  0.11715  0.26831  Biso   1.000  He
  Ne16     1.0000 0.42049  0.14667  0.25196  Biso   1.000  Ne
  Ne17     1.0000 0.72532  0.61681  0.07747  Biso   1.000  Ne
  He17     1.0000 0.69257  0.61049  0.06494  Biso   1.000  He
  He18     1.0000 0.66599  0.61987  0.08414  Biso   1.000  He
  Ne18     1.0000 0.63718  0.61106  0.07294  Biso   1.000  Ne
  Ne19     1.0000 0.06629  0.55625  0.49666  Biso   1.000  Ne
  He19     1.0000 0.04828  0.54958  0.46901  Biso   1.000  He
  He20     1.0000 0.06858  0.54394  0.44373  Biso   1.000  He
  Ne20     1.0000 0.05282  0.53681  0.41417  Biso   1.000  Ne
  Ne21     1.0000 0.08145  0.46734  0.47054  Biso   1.000  Ne
  He21     1.0000 0.07565  0.47441  0.50406  Biso   1.000  He
  He22     1.0000 0.08558  0.44740  0.52329  Biso   1.000  He
  Ne22     1.0000 0.08540  0.45130  0.55589  Biso   1.000  Ne
  Ne23     1.0000 0.16784  0.72714  0.57548  Biso   1.000  Ne
  He23     1.0000 0.16972  0.69857  0.59236  Biso   1.000  He
  He24     1.0000 0.14626  0.69878  0.61440  Biso   1.000  He
  Ne24     1.0000 0.14622  0.67365  0.63737  Biso   1.000  Ne
  Ne25     1.0000 0.41748  0.05602  0.38319  Biso   1.000  Ne
  He25     1.0000 0.42728  0.08722  0.38578  Biso   1.000  He
  He26     1.0000 0.40467  0.10399  0.40440  Biso   1.000  He
  Ne26     1.0000 0.40976  0.13653  0.40027  Biso   1.000  Ne
  Ne27     1.0000 0.80744  0.57086  0.57341  Biso   1.000  Ne
  He27     1.0000 0.82457  0.59516  0.58425  Biso   1.000  He
  He28     1.0000 0.81160  0.62512  0.58216  Biso   1.000  He
  Ne28     1.0000 0.83041  0.65004  0.59483  Biso   1.000  Ne
  Ne29     1.0000 0.42877  0.90394  0.60533  Biso   1.000  Ne
  He29     1.0000 0.43178  0.87678  0.58526  Biso   1.000  He
  He30     1.0000 0.42042  0.84953  0.59722  Biso   1.000  He
  Ne30     1.0000 0.41905  0.82327  0.57642  Biso   1.000  Ne
  Ne31     1.0000 0.64301  0.87734  0.60813  Biso   1.000  Ne
  He31     1.0000 0.62143  0.85479  0.61227  Biso   1.000  He
  He32     1.0000 0.63043  0.82732  0.59623  Biso   1.000  He
  Ne32     1.0000 0.60604  0.80596  0.58955  Biso   1.000  Ne
  Ne33     1.0000 0.92268  0.64102  0.57591  Biso   1.000  Ne
  He33     1.0000 0.94067  0.63919  0.60265  Biso   1.000  He
  He34     1.0000 0.92588  0.62282  0.62617  Biso   1.000  He
  Ne34     1.0000 0.93730  0.59264  0.63190  Biso   1.000  Ne
  Ne35     1.0000 0.36983  0.34936  0.10649  Biso   1.000  Ne
  He35     1.0000 0.38539  0.32604  0.08346  Biso   1.000  He
  He36     1.0000 0.41843  0.32018  0.08545  Biso   1.000  He
  Ne36     1.0000 0.42549  0.29461  0.06734  Biso   1.000  Ne
  Ne37     1.0000 0.93767  0.96505  0.94116  Biso   1.000  Ne
  He37     1.0000 0.92876  0.99273  0.94968  Biso   1.000  He
  He38     1.0000 0.95397  0.01002  0.95807  Biso   1.000  He
  Ne38     1.0000 0.94705  0.04376  0.96497  Biso   1.000  Ne
  Ne39     1.0000 0.92634  0.41632  0.33655  Biso   1.000  Ne
  He39     1.0000 0.89548  0.42079  0.33886  Biso   1.000  He
  He40     1.0000 0.87830  0.40767  0.36429  Biso   1.000  He
  Ne40     1.0000 0.84857  0.42111  0.37087  Biso   1.000  Ne
  Ne41     1.0000 0.08643  0.95586  0.05204  Biso   1.000  Ne
  He41     1.0000 0.11096  0.93239  0.05859  Biso   1.000  He
  He42     1.0000 0.11594  0.93074  0.09153  Biso   1.000  He
  Ne42     1.0000 0.13805  0.90797  0.10487  Biso   1.000  Ne
  Ne43     1.0000 0.64715  0.91550  0.39839  Biso   1.000  Ne
  He43     1.0000 0.61658  0.90672  0.40372  Biso   1.000  He
  He44     1.0000 0.59668  0.90414  0.37820  Biso   1.000  He
  Ne44     1.0000 0.56794  0.89750  0.39040  Biso   1.000  Ne
  Ne45     1.0000 0.10359  0.58162  0.34179  Biso   1.000  Ne
  He45     1.0000 0.12530  0.56928  0.32113  Biso   1.000  He
  He46     1.0000 0.11771  0.57392  0.28898  Biso   1.000  He
  Ne46     1.0000 0.14112  0.56873  0.26595  Biso   1.000  Ne
  Ne47     1.0000 0.15628  0.07798  0.08446  Biso   1.000  Ne
  He47     1.0000 0.13724  0.06866  0.06143  Biso   1.000  He
  He48     1.0000 0.11133  0.08741  0.05958  Biso   1.000  He
  Ne48     1.0000 0.09448  0.07671  0.03450  Biso   1.000  Ne
  Ne49     1.0000 0.96181  0.98319  0.32333  Biso   1.000  Ne
  He49     1.0000 0.96777  0.01348  0.30854  Biso   1.000  He
  He50     1.0000 0.00006  0.02125  0.30726  Biso   1.000  He
  Ne50     1.0000 0.00730  0.05016  0.29787  Biso   1.000  Ne
  Ne51     1.0000 0.90297  0.06731  0.90022  Biso   1.000  Ne
  He51     1.0000 0.90364  0.09683  0.91631  Biso   1.000  He
  He52     1.0000 0.92014  0.11982  0.89802  Biso   1.000  He
  Ne52     1.0000 0.92599  0.14507  0.91480  Biso   1.000  Ne
  Ne53     1.0000 0.61770  0.64062  0.91779  Biso   1.000  Ne
  He53     1.0000 0.60481  0.61380  0.90420  Biso   1.000  He
  He54     1.0000 0.61327  0.58337  0.92154  Biso   1.000  He
  Ne54     1.0000 0.59590  0.55411  0.90988  Biso   1.000  Ne
  Ne55     1.0000 0.82100  0.57927  0.41982  Biso   1.000  Ne
  He55     1.0000 0.84859  0.58354  0.40113  Biso   1.000  He
  He56     1.0000 0.86867  0.60636  0.41375  Biso   1.000  He
  Ne56     1.0000 0.89607  0.61099  0.39758  Biso   1.000  Ne
  Ne57     1.0000 0.75908  0.28592  0.39796  Biso   1.000  Ne
  He57     1.0000 0.78513  0.30594  0.40852  Biso   1.000  He
  He58     1.0000 0.80078  0.31610  0.38163  Biso   1.000  He
  Ne58     1.0000 0.82988  0.33196  0.38806  Biso   1.000  Ne
  Ne59     1.0000 0.60513  0.37408  0.17979  Biso   1.000  Ne
  He59     1.0000 0.61030  0.35509  0.15132  Biso   1.000  He
  He60     1.0000 0.63719  0.33872  0.15821  Biso   1.000  He
  Ne60     1.0000 0.65031  0.32201  0.13266  Biso   1.000  Ne
  Ne61     1.0000 0.10031  0.82399  0.16190  Biso   1.000  Ne
  He61     1.0000 0.10813  0.82170  0.12916  Biso   1.000  He
  He62     1.0000 0.08349  0.81755  0.10943  Biso   1.000  He
  Ne62     1.0000 0.09408  0.81468  0.07956  Biso   1.000  Ne
  Ne63     1.0000 0.33982  0.05679  0.70987  Biso   1.000  Ne
  He63     1.0000 0.33171  0.06806  0.67795  Biso   1.000  He
  He64     1.0000 0.31552  0.04840  0.65812  Biso   1.000  He
  Ne64     1.0000 0.30356  0.06378  0.63102  Biso   1.000  Ne
  Ne65     1.0000 0.77860  0.43245  0.82051  Biso   1.000  Ne
  He65     1.0000 0.75564  0.41872  0.79871  Biso   1.000  He
  He66     1.0000 0.77153  0.40321  0.77313  Biso   1.000  He
  Ne66     1.0000 0.75110  0.38822  0.75248  Biso   1.000  Ne
  Ne67     1.0000 0.89355  0.54961  0.55887  Biso   1.000  Ne
  He67     1.0000 0.91983  0.52936  0.55128  Biso   1.000  He
  He68     1.0000 0.94764  0.53721  0.56532  Biso   1.000  He
  Ne68     1.0000 0.97263  0.51352  0.56054  Biso   1.000  Ne
  Ne69     1.0000 0.93105  0.05844  0.10907  Biso   1.000  Ne
  He69     1.0000 0.95359  0.07427  0.08590  Biso   1.000  He
  He70     1.0000 0.96944  0.05501  0.06308  Biso   1.000  He
  Ne70     1.0000 0.99252  0.07321  0.04613  Biso   1.000  Ne
  Ne71     1.0000 0.10534  0.40475  0.69157  Biso   1.000  Ne
  He71     1.0000 0.09452  0.40091  0.66057  Biso   1.000  He
  He72     1.0000 0.10980  0.37689  0.63887  Biso   1.000  He
  Ne72     1.0000 0.09613  0.37177  0.61090  Biso   1.000  Ne
  Ne73     1.0000 0.17727  0.56656  0.41880  Biso   1.000  Ne
  He73     1.0000 0.20012  0.56076  0.39544  Biso   1.000  He
  He74     1.0000 0.19204  0.57858  0.36892  Biso   1.000  He
  Ne74     1.0000 0.21961  0.57645  0.35052  Biso   1.000  Ne
  Ne75     1.0000 0.80848  0.34777  0.29026  Biso   1.000  Ne
  He75     1.0000 0.79080  0.37652  0.29483  Biso   1.000  He
  He76     1.0000 0.80488  0.40777  0.29291  Biso   1.000  He
  Ne76     1.0000 0.78572  0.43472  0.30512  Biso   1.000  Ne
  Ne77     1.0000 0.64687  0.29062  0.92241  Biso   1.000  Ne
  He77     1.0000 0.64841  0.32371  0.91258  Biso   1.000  He
  He78     1.0000 0.62187  0.33945  0.92007  Biso   1.000  He
  Ne78     1.0000 0.62313  0.37003  0.90638  Biso   1.000  Ne
  Ne79     1.0000 0.96661  0.48764  0.45536  Biso   1.000  Ne
  He79     1.0000 0.96186  0.45508  0.45436  Biso   1.000  He
  He80     1.0000 0.94604  0.44348  0.42658  Biso   1.000  He
  Ne80     1.0000 0.93647  0.41034  0.42463  Biso   1.000  Ne
  Ne81     1.0000 0.07148  0.69194  0.19273  Biso   1.000  Ne
  He81     1.0000 0.07560  0.66329  0.20774  Biso   1.000  He
  He82     1.0000 0.06223  0.63560  0.18965  Biso   1.000  He
  Ne82     1.0000 0.06596  0.60713  0.20187  Biso   1.000  Ne
  Ne83     1.0000 0.09467  0.61346  0.57199  Biso   1.000  Ne
  He83     1.0000 0.11822  0.58999  0.57611  Biso   1.000  He
  He84     1.0000 0.14410  0.59827  0.59508  Biso   1.000  He
  Ne84     1.0000 0.17454  0.60030  0.57822  Biso   1.000  Ne
  Ne85     1.0000 0.41943  0.57512  0.91275  Biso   1.000  Ne
  He85     1.0000 0.39027  0.56007  0.90438  Biso   1.000  He
  He86     1.0000 0.36298  0.58233  0.90431  Biso   1.000  He
  Ne86     1.0000 0.33604  0.56773  0.90591  Biso   1.000  Ne
  Ne87     1.0000 0.15294  0.40738  0.36071  Biso   1.000  Ne
  He87     1.0000 0.17077  0.37904  0.36557  Biso   1.000  He
  He88     1.0000 0.15343  0.35422  0.37986  Biso   1.000  He
  Ne88     1.0000 0.15884  0.35075  0.41153  Biso   1.000  Ne
  Ne89     1.0000 0.29408  0.04627  0.40860  Biso   1.000  Ne
  He89     1.0000 0.29859  0.07237  0.38945  Biso   1.000  He
  He90     1.0000 0.32633  0.07105  0.37578  Biso   1.000  He
  Ne90     1.0000 0.33423  0.09814  0.35694  Biso   1.000  Ne
  Ne91     1.0000 0.87979  0.87259  0.83389  Biso   1.000  Ne
  He91     1.0000 0.88592  0.87026  0.86650  Biso   1.000  He
  He92     1.0000 0.88231  0.89899  0.88250  Biso   1.000  He
  Ne92     1.0000 0.87954  0.90015  0.91662  Biso   1.000  Ne
  Ne93     1.0000 0.07666  0.05153  0.94492  Biso   1.000  Ne
  He93     1.0000 0.04743  0.03669  0.94008  Biso   1.000  He
  He94     1.0000 0.05259  0.01360  0.91825  Biso   1.000  He
  Ne94     1.0000 0.02336  0.99678  0.91341  Biso   1.000  Ne
  Ne95     1.0000 0.42909  0.56539  0.13570  Biso   1.000  Ne
  He95     1.0000 0.40021  0.56477  0.11978  Biso   1.000  He
  He96     1.0000 0.39092  0.58419  0.09340  Biso   1.000  He
  Ne96     1.0000 0.36215  0.57594  0.08028  Biso   1.000  Ne
  Ne97     1.0000 0.60534  0.05825  0.32998  Biso   1.000  Ne
  He97     1.0000 0.61666  0.06919  0.35740  Biso   1.000  He
  He98     1.0000 0.61961  0.10230  0.35785  Biso   1.000  He
  Ne98     1.0000 0.63095  0.11200  0.38708  Biso   1.000  Ne
  Ne99     1.0000 0.72941  0.90168  0.82908  Biso   1.000  Ne
  He99     1.0000 0.75382  0.90388  0.80685  Biso   1.000  He
  He100    1.0000 0.74530  0.89409  0.77638  Biso   1.000  He
  Ne100    1.0000 0.76928  0.89372  0.75079  Biso   1.000  Ne
  Ne101    1.0000 0.71022  0.13255  0.38664  Biso   1.000  Ne
  He101    1.0000 0.71560  0.11516  0.35729  Biso   1.000  He
  He102    1.0000 0.73612  0.08891  0.35770  Biso   1.000  He
  Ne102    1.0000 0.73515  0.07252  0.33134  Biso   1.000  Ne
  Ne103    1.0000 0.64022  0.08249  0.62231  Biso   1.000  Ne
  He103    1.0000 0.61391  0.09076  0.60396  Biso   1.000  He
  He104    1.0000 0.60795  0.12163  0.59631  Biso   1.000  He
  Ne104    1.0000 0.58049  0.12734  0.57830  Biso   1.000  Ne
  Ne105    1.0000 0.43760  0.09088  0.72522  Biso   1.000  Ne
  He105    1.0000 0.41363  0.09124  0.70350  Biso   1.000  He
  He106    1.0000 0.42326  0.10511  0.67376  Biso   1.000  He
  Ne106    1.0000 0.40025  0.10816  0.65175  Biso   1.000  Ne
  Ne107    1.0000 0.05228  0.92893  0.98293  Biso   1.000  Ne
  He107    1.0000 0.03382  0.90722  0.97047  Biso   1.000  He
  He108    1.0000 0.00206  0.91813  0.96244  Biso   1.000  He
  Ne108    1.0000 0.97948  0.89533  0.95026  Biso   1.000  Ne
  Ne109    1.0000 0.11049  0.64584  0.40768  Biso   1.000  Ne
  He109    1.0000 0.14087  0.64258  0.42132  Biso   1.000  He
  He110    1.0000 0.16675  0.65182  0.40236  Biso   1.000  He
  Ne110    1.0000 0.19809  0.65215  0.41443  Biso   1.000  Ne
  Ne111    1.0000 0.67590  0.41680  0.06786  Biso   1.000  Ne
  He111    1.0000 0.67959  0.39700  0.09415  Biso   1.000  He
  He112    1.0000 0.70282  0.40803  0.11505  Biso   1.000  He
  Ne112    1.0000 0.70737  0.39052  0.14116  Biso   1.000  Ne
  Ne113    1.0000 0.94217  0.89160  0.06583  Biso   1.000  Ne
  He113    1.0000 0.93416  0.92490  0.06436  Biso   1.000  He
  He114    1.0000 0.95032  0.94172  0.04071  Biso   1.000  He
  Ne114    1.0000 0.93948  0.97271  0.03685  Biso   1.000  Ne
  Ne115    1.0000 0.92383  0.23828  0.93357  Biso   1.000  Ne
  He115    1.0000 0.93121  0.24349  0.90237  Biso   1.000  He
  He116    1.0000 0.93480  0.27661  0.89437  Biso   1.000  He
  Ne116    1.0000 0.94603  0.28352  0.86417  Biso   1.000  Ne
  Ne117    1.0000 0.09102  0.57528  0.66822  Biso   1.000  Ne
  He117    1.0000 0.12224  0.56494  0.67528  Biso   1.000  He
  He118    1.0000 0.13454  0.57800  0.70438  Biso   1.000  He
  Ne118    1.0000 0.12951  0.55957  0.73137  Biso   1.000  Ne
  Ne119    1.0000 0.57968  0.02738  0.54299  Biso   1.000  Ne
  He119    1.0000 0.54894  0.03879  0.54907  Biso   1.000  He
  He120    1.0000 0.53067  0.03939  0.52087  Biso   1.000  He
  Ne120    1.0000 0.49912  0.04817  0.52414  Biso   1.000  Ne
