data_image0
_cell_length_a       46.5404
_cell_length_b       46.5609
_cell_length_c       46.6993
_cell_angle_alpha    90
_cell_angle_beta     90
_cell_angle_gamma    90

_symmetry_space_group_name_H-M    "P 1"
_symmetry_int_tables_number       1

loop_
  _symmetry_equiv_pos_as_xyz
  'x, y, z'

loop_
  _atom_site_label
  _atom_site_occupancy
  _atom_site_fract_x
  _atom_site_fract_y
  _atom_site_fract_z
  _atom_site_thermal_displace_type
  _atom_site_B_iso_or_equiv
  _atom_site_type_symbol
  Ne1      1.0000 0.40467  0.06591  0.58572  Biso   1.000  Ne
  He1      1.0000 0.43300  0.06502  0.56846  Biso   1.000  He
  He2      1.0000 0.46158  0.06581  0.58447  Biso   1.000  He
  Ne2      1.0000 0.48537  0.06358  0.56266  Biso   1.000  Ne
  Ne3      1.0000 0.90745  0.15425  0.93819  Biso   1.000  Ne
  He3      1.0000 0.88961  0.14153  0.91323  Biso   1.000  He
  He4      1.0000 0.86740  0.11947  0.92277  Biso   1.000  He
  Ne4      1.0000 0.84569  0.11167  0.89878  Biso   1.000  Ne
  Ne5      1.0000 0.42544  0.83227  0.74778  Biso   1.000  Ne
  He5      1.0000 0.40735  0.86022  0.74652  Biso   1.000  He
  He6      1.0000 0.42502  0.88186  0.72848  Biso   1.000  He
  Ne6      1.0000 0.41423  0.91140  0.72568  Biso   1.000  Ne
  Ne7      1.0000 0.93254  0.45401  0.46092  Biso   1.000  Ne
  He7      1.0000 0.93631  0.45260  0.42759  Biso   1.000  He
  He8      1.0000 0.91887  0.42961  0.41501  Biso   1.000  He
  Ne8      1.0000 0.92031  0.43057  0.38101  Biso   1.000  Ne
  Ne9      1.0000 0.14390  0.58516  0.38152  Biso   1.000  Ne
  He9      1.0000 0.12828  0.61464  0.37957  Biso   1.000  He
  He10     1.0000 0.12020  0.62896  0.40619  Biso   1.000  He
  Ne10     1.0000 0.10438  0.65877  0.40222  Biso   1.000  Ne
  Ne11     1.0000 0.38248  0.15765  0.59875  Biso   1.000  Ne
  He11     1.0000 0.41468  0.15938  0.61246  Biso   1.000  He
  He12     1.0000 0.42102  0.18638  0.63237  Biso   1.000  He
  Ne12     1.0000 0.41731  0.17933  0.66471  Biso   1.000  Ne
  Ne13     1.0000 0.95207  0.87080  0.11529  Biso   1.000  Ne
  He13     1.0000 0.95111  0.86806  0.14642  Biso   1.000  He
  He14     1.0000 0.93229  0.88911  0.16040  Biso   1.000  He
  Ne14     1.0000 0.93042  0.88611  0.19433  Biso   1.000  Ne
  Ne15     1.0000 0.92399  0.08838  0.16926  Biso   1.000  Ne
  He15     1.0000 0.91967  0.11854  0.17850  Biso   1.000  He
  He16     1.0000 0.91855  0.12266  0.21053  Biso   1.000  He
  Ne16     1.0000 0.91376  0.15387  0.21843  Biso   1.000  Ne
  Ne17     1.0000 0.44247  0.85143  0.61208  Biso   1.000  Ne
  He17     1.0000 0.43692  0.81748  0.60933  Biso   1.000  He
  He18     1.0000 0.45660  0.79740  0.62777  Biso   1.000  He
  Ne18     1.0000 0.45333  0.76604  0.62552  Biso   1.000  Ne
  Ne19     1.0000 0.40698  0.37131  0.25292  Biso   1.000  Ne
  He19     1.0000 0.40392  0.35044  0.22848  Biso   1.000  He
  He20     1.0000 0.42930  0.34345  0.20869  Biso   1.000  He
  Ne20     1.0000 0.42119  0.32520  0.18190  Biso   1.000  Ne
