data_image0
_cell_length_a       46.7749
_cell_length_b       46.6929
_cell_length_c       46.5072
_cell_angle_alpha    90
_cell_angle_beta     90
_cell_angle_gamma    90

_symmetry_space_group_name_H-M    "P 1"
_symmetry_int_tables_number       1

loop_
  _symmetry_equiv_pos_as_xyz
  'x, y, z'

loop_
  _atom_site_label
  _atom_site_occupancy
  _atom_site_fract_x
  _atom_site_fract_y
  _atom_site_fract_z
  _atom_site_thermal_displace_type
  _atom_site_B_iso_or_equiv
  _atom_site_type_symbol
  Ne1      1.0000 0.39210  0.88891  0.42494  Biso   1.000  Ne
  He1      1.0000 0.40218  0.89697  0.39275  Biso   1.000  He
  He2      1.0000 0.38128  0.88849  0.36855  Biso   1.000  He
  Ne2      1.0000 0.38795  0.89642  0.33696  Biso   1.000  Ne
  Ne3      1.0000 0.58262  0.65861  0.87939  Biso   1.000  Ne
  He3      1.0000 0.58773  0.63411  0.85884  Biso   1.000  He
  He4      1.0000 0.58973  0.60484  0.87411  Biso   1.000  He
  Ne4      1.0000 0.58854  0.57654  0.85293  Biso   1.000  Ne
  Ne5      1.0000 0.08384  0.36686  0.43688  Biso   1.000  Ne
  He5      1.0000 0.11551  0.38154  0.44328  Biso   1.000  He
  He6      1.0000 0.14117  0.35996  0.44861  Biso   1.000  He
  Ne6      1.0000 0.16949  0.37348  0.44949  Biso   1.000  Ne
  Ne7      1.0000 0.09757  0.25073  0.30421  Biso   1.000  Ne
  He7      1.0000 0.11470  0.24647  0.33249  Biso   1.000  He
  He8      1.0000 0.09225  0.24519  0.35788  Biso   1.000  He
  Ne8      1.0000 0.10349  0.23669  0.38760  Biso   1.000  Ne
  Ne9      1.0000 0.11329  0.05154  0.17387  Biso   1.000  Ne
  He9      1.0000 0.14421  0.05527  0.16391  Biso   1.000  He
  He10     1.0000 0.15176  0.03854  0.13607  Biso   1.000  He
  Ne10     1.0000 0.18253  0.04303  0.12508  Biso   1.000  Ne
  Ne11     1.0000 0.44195  0.35739  0.87958  Biso   1.000  Ne
  He11     1.0000 0.41200  0.37302  0.88248  Biso   1.000  He
  He12     1.0000 0.39179  0.36396  0.85450  Biso   1.000  He
  Ne12     1.0000 0.36228  0.38320  0.85369  Biso   1.000  Ne
  Ne13     1.0000 0.10290  0.86280  0.94018  Biso   1.000  Ne
  He13     1.0000 0.09002  0.83590  0.92539  Biso   1.000  He
  He14     1.0000 0.10470  0.80703  0.93384  Biso   1.000  He
  Ne14     1.0000 0.08982  0.77924  0.92224  Biso   1.000  Ne
  Ne15     1.0000 0.93309  0.15864  0.83691  Biso   1.000  Ne
  He15     1.0000 0.93805  0.13529  0.86068  Biso   1.000  He
  He16     1.0000 0.93337  0.14760  0.89207  Biso   1.000  He
  Ne16     1.0000 0.94665  0.12842  0.91618  Biso   1.000  Ne
  Ne17     1.0000 0.64379  0.90320  0.45975  Biso   1.000  Ne
  He17     1.0000 0.63364  0.87835  0.44204  Biso   1.000  He
  He18     1.0000 0.60125  0.87167  0.44563  Biso   1.000  He
  Ne18     1.0000 0.58747  0.84645  0.42852  Biso   1.000  Ne
  Ne19     1.0000 0.47691  0.95175  0.61264  Biso   1.000  Ne
  He19     1.0000 0.49163  0.96974  0.58745  Biso   1.000  He
  He20     1.0000 0.47609  0.99438  0.57473  Biso   1.000  He
  Ne20     1.0000 0.49214  0.00743  0.54934  Biso   1.000  Ne
  Ne21     1.0000 0.63607  0.88318  0.32549  Biso   1.000  Ne
  He21     1.0000 0.65495  0.87116  0.34995  Biso   1.000  He
  He22     1.0000 0.68434  0.88414  0.34748  Biso   1.000  He
  Ne22     1.0000 0.70805  0.87010  0.36589  Biso   1.000  Ne
  Ne23     1.0000 0.44763  0.13551  0.40278  Biso   1.000  Ne
  He23     1.0000 0.43183  0.10667  0.39917  Biso   1.000  He
  He24     1.0000 0.43404  0.09215  0.37002  Biso   1.000  He
  Ne24     1.0000 0.42301  0.06048  0.37292  Biso   1.000  Ne
  Ne25     1.0000 0.58113  0.77914  0.79123  Biso   1.000  Ne
  He25     1.0000 0.60657  0.76364  0.77261  Biso   1.000  He
  He26     1.0000 0.63739  0.77717  0.77489  Biso   1.000  He
  Ne26     1.0000 0.66200  0.76074  0.75914  Biso   1.000  Ne
  Ne27     1.0000 0.43801  0.88079  0.61642  Biso   1.000  Ne
  He27     1.0000 0.42328  0.88896  0.64408  Biso   1.000  He
  He28     1.0000 0.39093  0.89911  0.64128  Biso   1.000  He
  Ne28     1.0000 0.37947  0.91052  0.67070  Biso   1.000  Ne
  Ne29     1.0000 0.57670  0.41656  0.91836  Biso   1.000  Ne
  He29     1.0000 0.56051  0.41277  0.94781  Biso   1.000  He
  He30     1.0000 0.57426  0.39428  0.97129  Biso   1.000  He
  Ne30     1.0000 0.55365  0.38934  0.99783  Biso   1.000  Ne
  Ne31     1.0000 0.16290  0.12717  0.94846  Biso   1.000  Ne
  He31     1.0000 0.13360  0.14384  0.94586  Biso   1.000  He
  He32     1.0000 0.13535  0.16610  0.92048  Biso   1.000  He
  Ne32     1.0000 0.10635  0.17840  0.90938  Biso   1.000  Ne
  Ne33     1.0000 0.80252  0.11724  0.13828  Biso   1.000  Ne
  He33     1.0000 0.83216  0.10622  0.13073  Biso   1.000  He
  He34     1.0000 0.84964  0.12973  0.11787  Biso   1.000  He
  Ne34     1.0000 0.88191  0.12029  0.11529  Biso   1.000  Ne
  Ne35     1.0000 0.06720  0.95507  0.04316  Biso   1.000  Ne
  He35     1.0000 0.09200  0.95793  0.02019  Biso   1.000  He
  He36     1.0000 0.08655  0.93820  0.99276  Biso   1.000  He
  Ne36     1.0000 0.10685  0.94634  0.96937  Biso   1.000  Ne
  Ne37     1.0000 0.09660  0.17420  0.16651  Biso   1.000  Ne
  He37     1.0000 0.09425  0.14445  0.15141  Biso   1.000  He
  He38     1.0000 0.12120  0.12934  0.13538  Biso   1.000  He
  Ne38     1.0000 0.12394  0.13336  0.10371  Biso   1.000  Ne
  Ne39     1.0000 0.34187  0.31724  0.13436  Biso   1.000  Ne
  He39     1.0000 0.34142  0.34922  0.13834  Biso   1.000  He
  He40     1.0000 0.35946  0.36452  0.11511  Biso   1.000  He
  Ne40     1.0000 0.36174  0.39657  0.12108  Biso   1.000  Ne
  Ne41     1.0000 0.41432  0.65825  0.94527  Biso   1.000  Ne
  He41     1.0000 0.40465  0.62830  0.96126  Biso   1.000  He
  He42     1.0000 0.42500  0.60375  0.95383  Biso   1.000  He
  Ne42     1.0000 0.44440  0.59371  0.98018  Biso   1.000  Ne
  Ne43     1.0000 0.91605  0.30923  0.34916  Biso   1.000  Ne
  He43     1.0000 0.91397  0.28620  0.37462  Biso   1.000  He
  He44     1.0000 0.92288  0.29689  0.40565  Biso   1.000  He
  Ne44     1.0000 0.92765  0.27328  0.42693  Biso   1.000  Ne
  Ne45     1.0000 0.62227  0.32054  0.81776  Biso   1.000  Ne
  He45     1.0000 0.62143  0.34852  0.83255  Biso   1.000  He
  He46     1.0000 0.63636  0.37163  0.81581  Biso   1.000  He
  Ne46     1.0000 0.63179  0.40146  0.83372  Biso   1.000  Ne
  Ne47     1.0000 0.24703  0.03741  0.41900  Biso   1.000  Ne
  He47     1.0000 0.27908  0.04159  0.42587  Biso   1.000  He
  He48     1.0000 0.29341  0.07323  0.42088  Biso   1.000  He
  Ne48     1.0000 0.32564  0.07677  0.42205  Biso   1.000  Ne
  Ne49     1.0000 0.81872  0.10716  0.46063  Biso   1.000  Ne
  He49     1.0000 0.78641  0.11275  0.46768  Biso   1.000  He
  He50     1.0000 0.77363  0.13643  0.44864  Biso   1.000  He
  Ne50     1.0000 0.74364  0.14164  0.45347  Biso   1.000  Ne
  Ne51     1.0000 0.25330  0.68390  0.40812  Biso   1.000  Ne
  He51     1.0000 0.26246  0.67558  0.43715  Biso   1.000  He
  He52     1.0000 0.29268  0.65988  0.43661  Biso   1.000  He
  Ne52     1.0000 0.30192  0.65584  0.46649  Biso   1.000  Ne
  Ne53     1.0000 0.98003  0.78421  0.60481  Biso   1.000  Ne
  He53     1.0000 0.96862  0.75601  0.61160  Biso   1.000  He
  He54     1.0000 0.95521  0.74188  0.58534  Biso   1.000  He
  Ne54     1.0000 0.94571  0.71329  0.59281  Biso   1.000  Ne
  Ne55     1.0000 0.72395  0.53592  0.78685  Biso   1.000  Ne
  He55     1.0000 0.69139  0.53469  0.79673  Biso   1.000  He
  He56     1.0000 0.68525  0.55434  0.82304  Biso   1.000  He
  Ne56     1.0000 0.65456  0.55414  0.82970  Biso   1.000  Ne
  Ne57     1.0000 0.35137  0.53458  0.68084  Biso   1.000  Ne
  He57     1.0000 0.37216  0.50926  0.69056  Biso   1.000  He
  He58     1.0000 0.39725  0.51618  0.71008  Biso   1.000  He
  Ne58     1.0000 0.40949  0.48752  0.72007  Biso   1.000  Ne
  Ne59     1.0000 0.90386  0.87220  0.12147  Biso   1.000  Ne
  He59     1.0000 0.86943  0.87001  0.12255  Biso   1.000  He
  He60     1.0000 0.85119  0.89809  0.11374  Biso   1.000  He
  Ne60     1.0000 0.81954  0.89718  0.11314  Biso   1.000  Ne
  Ne61     1.0000 0.62258  0.04295  0.44343  Biso   1.000  Ne
  He61     1.0000 0.60237  0.05838  0.46586  Biso   1.000  He
  He62     1.0000 0.58962  0.03747  0.48596  Biso   1.000  He
  Ne62     1.0000 0.57756  0.05200  0.51420  Biso   1.000  Ne
  Ne63     1.0000 0.71051  0.81123  0.06957  Biso   1.000  Ne
  He63     1.0000 0.72383  0.78375  0.08547  Biso   1.000  He
  He64     1.0000 0.70307  0.75737  0.08686  Biso   1.000  He
  Ne64     1.0000 0.71552  0.72994  0.10439  Biso   1.000  Ne
  Ne65     1.0000 0.09614  0.67231  0.65556  Biso   1.000  Ne
  He65     1.0000 0.12757  0.66186  0.64607  Biso   1.000  He
  He66     1.0000 0.12312  0.64738  0.61632  Biso   1.000  He
  Ne66     1.0000 0.15144  0.63787  0.60107  Biso   1.000  Ne
  Ne67     1.0000 0.92897  0.05114  0.18858  Biso   1.000  Ne
  He67     1.0000 0.91783  0.06039  0.15763  Biso   1.000  He
  He68     1.0000 0.93446  0.05089  0.13108  Biso   1.000  He
  Ne68     1.0000 0.91447  0.04911  0.10425  Biso   1.000  Ne
  Ne69     1.0000 0.12141  0.89673  0.11806  Biso   1.000  Ne
  He69     1.0000 0.10969  0.87176  0.09878  Biso   1.000  He
  He70     1.0000 0.09866  0.84825  0.11935  Biso   1.000  He
  Ne70     1.0000 0.09245  0.81997  0.10375  Biso   1.000  Ne
  Ne71     1.0000 0.67514  0.05618  0.37187  Biso   1.000  Ne
  He71     1.0000 0.65261  0.06864  0.35335  Biso   1.000  He
  He72     1.0000 0.62787  0.08083  0.37127  Biso   1.000  He
  Ne72     1.0000 0.60254  0.09088  0.35109  Biso   1.000  Ne
  Ne73     1.0000 0.85067  0.05290  0.86842  Biso   1.000  Ne
  He73     1.0000 0.84766  0.05839  0.90013  Biso   1.000  He
  He74     1.0000 0.87406  0.06019  0.91926  Biso   1.000  He
  Ne74     1.0000 0.86684  0.07237  0.95065  Biso   1.000  Ne
  Ne75     1.0000 0.82120  0.06663  0.75631  Biso   1.000  Ne
  He75     1.0000 0.80935  0.05719  0.72399  Biso   1.000  He
  He76     1.0000 0.80554  0.02481  0.71714  Biso   1.000  He
  Ne76     1.0000 0.78941  0.01689  0.68962  Biso   1.000  Ne
  Ne77     1.0000 0.61030  0.88307  0.70761  Biso   1.000  Ne
  He77     1.0000 0.63759  0.88638  0.72630  Biso   1.000  He
  He78     1.0000 0.66489  0.88828  0.70963  Biso   1.000  He
  Ne78     1.0000 0.69146  0.89074  0.72978  Biso   1.000  Ne
  Ne79     1.0000 0.91984  0.39834  0.66356  Biso   1.000  Ne
  He79     1.0000 0.93469  0.37657  0.68652  Biso   1.000  He
  He80     1.0000 0.92617  0.34596  0.67705  Biso   1.000  He
  Ne80     1.0000 0.93030  0.32211  0.69886  Biso   1.000  Ne
  Ne81     1.0000 0.40932  0.81361  0.43472  Biso   1.000  Ne
  He81     1.0000 0.40532  0.80427  0.40336  Biso   1.000  He
  He82     1.0000 0.43245  0.78676  0.39287  Biso   1.000  He
  Ne82     1.0000 0.42923  0.77924  0.35958  Biso   1.000  Ne
  Ne83     1.0000 0.94558  0.56848  0.33837  Biso   1.000  Ne
  He83     1.0000 0.92148  0.56688  0.36312  Biso   1.000  He
  He84     1.0000 0.89058  0.57524  0.35731  Biso   1.000  He
  Ne84     1.0000 0.87218  0.56795  0.38469  Biso   1.000  Ne
  Ne85     1.0000 0.38514  0.38150  0.23913  Biso   1.000  Ne
  He85     1.0000 0.39370  0.37852  0.20660  Biso   1.000  He
  He86     1.0000 0.42473  0.38858  0.20170  Biso   1.000  He
  Ne86     1.0000 0.43293  0.38633  0.16821  Biso   1.000  Ne
  Ne87     1.0000 0.58276  0.03648  0.60967  Biso   1.000  Ne
  He87     1.0000 0.56090  0.05971  0.61853  Biso   1.000  He
  He88     1.0000 0.56248  0.08985  0.60278  Biso   1.000  He
  Ne88     1.0000 0.57271  0.11757  0.61799  Biso   1.000  Ne
  Ne89     1.0000 0.94264  0.16637  0.12474  Biso   1.000  Ne
  He89     1.0000 0.93710  0.17267  0.15805  Biso   1.000  He
  He90     1.0000 0.92823  0.14521  0.17404  Biso   1.000  He
  Ne90     1.0000 0.92571  0.14819  0.20842  Biso   1.000  Ne
  Ne91     1.0000 0.10495  0.02814  0.94069  Biso   1.000  Ne
  He91     1.0000 0.10662  0.03873  0.91073  Biso   1.000  He
  He92     1.0000 0.13269  0.05537  0.90732  Biso   1.000  He
  Ne92     1.0000 0.13902  0.06567  0.87629  Biso   1.000  Ne
  Ne93     1.0000 0.65505  0.56992  0.94435  Biso   1.000  Ne
  He93     1.0000 0.63413  0.55231  0.92692  Biso   1.000  He
  He94     1.0000 0.60697  0.54391  0.94266  Biso   1.000  He
  Ne94     1.0000 0.58160  0.52689  0.92782  Biso   1.000  Ne
  Ne95     1.0000 0.87166  0.88873  0.96505  Biso   1.000  Ne
  He95     1.0000 0.89045  0.88243  0.93660  Biso   1.000  He
  He96     1.0000 0.87648  0.89224  0.90838  Biso   1.000  He
  Ne96     1.0000 0.89456  0.88060  0.88359  Biso   1.000  Ne
  Ne97     1.0000 0.63118  0.34358  0.91565  Biso   1.000  Ne
  He97     1.0000 0.65271  0.36968  0.91469  Biso   1.000  He
  He98     1.0000 0.67727  0.36378  0.93502  Biso   1.000  He
  Ne98     1.0000 0.69314  0.39020  0.94530  Biso   1.000  Ne
  Ne99     1.0000 0.15452  0.35097  0.35290  Biso   1.000  Ne
  He99     1.0000 0.12214  0.35435  0.34296  Biso   1.000  He
  He100    1.0000 0.10001  0.33366  0.35170  Biso   1.000  He
  Ne100    1.0000 0.07082  0.34331  0.34113  Biso   1.000  Ne
