data_image0
_cell_length_a       46.5218
_cell_length_b       47.0032
_cell_length_c       46.5512
_cell_angle_alpha    90
_cell_angle_beta     90
_cell_angle_gamma    90

_symmetry_space_group_name_H-M    "P 1"
_symmetry_int_tables_number       1

loop_
  _symmetry_equiv_pos_as_xyz
  'x, y, z'

loop_
  _atom_site_label
  _atom_site_occupancy
  _atom_site_fract_x
  _atom_site_fract_y
  _atom_site_fract_z
  _atom_site_thermal_displace_type
  _atom_site_B_iso_or_equiv
  _atom_site_type_symbol
  Ne1      1.0000 0.58437  0.29439  0.86885  Biso   1.000  Ne
  He1      1.0000 0.59876  0.32218  0.85966  Biso   1.000  He
  He2      1.0000 0.58275  0.34882  0.87203  Biso   1.000  He
  Ne2      1.0000 0.59778  0.37857  0.86429  Biso   1.000  Ne
  Ne3      1.0000 0.61585  0.04701  0.63819  Biso   1.000  Ne
  He3      1.0000 0.58852  0.05899  0.62482  Biso   1.000  He
  He4      1.0000 0.58068  0.04581  0.59536  Biso   1.000  He
  Ne4      1.0000 0.55286  0.05610  0.58430  Biso   1.000  Ne
  Ne5      1.0000 0.56607  0.90810  0.41172  Biso   1.000  Ne
  He5      1.0000 0.57301  0.87625  0.41657  Biso   1.000  He
  He6      1.0000 0.58092  0.86849  0.44771  Biso   1.000  He
  Ne6      1.0000 0.58894  0.83521  0.44951  Biso   1.000  Ne
  Ne7      1.0000 0.71604  0.24993  0.94233  Biso   1.000  Ne
  He7      1.0000 0.71800  0.22036  0.92876  Biso   1.000  He
  He8      1.0000 0.74838  0.21359  0.91845  Biso   1.000  He
  Ne8      1.0000 0.75288  0.18414  0.90633  Biso   1.000  Ne
  Ne9      1.0000 0.35879  0.07490  0.74564  Biso   1.000  Ne
  He9      1.0000 0.37929  0.06235  0.72366  Biso   1.000  He
  He10     1.0000 0.40620  0.07730  0.71437  Biso   1.000  He
  Ne10     1.0000 0.42765  0.06418  0.69237  Biso   1.000  Ne
  Ne11     1.0000 0.67857  0.51639  0.76514  Biso   1.000  Ne
  He11     1.0000 0.69228  0.53375  0.78765  Biso   1.000  He
  He12     1.0000 0.69767  0.56492  0.78136  Biso   1.000  He
  Ne12     1.0000 0.71163  0.58334  0.80522  Biso   1.000  Ne
  Ne13     1.0000 0.93357  0.42048  0.55314  Biso   1.000  Ne
  He13     1.0000 0.96586  0.43366  0.54372  Biso   1.000  He
  He14     1.0000 0.99130  0.41257  0.55096  Biso   1.000  He
  Ne14     1.0000 0.02185  0.42291  0.54205  Biso   1.000  Ne
  Ne15     1.0000 0.84491  0.88834  0.10364  Biso   1.000  Ne
  He15     1.0000 0.87660  0.89856  0.11092  Biso   1.000  He
  He16     1.0000 0.88538  0.88716  0.13973  Biso   1.000  He
  Ne16     1.0000 0.91631  0.89670  0.14869  Biso   1.000  Ne
  Ne17     1.0000 0.95453  0.66135  0.61304  Biso   1.000  Ne
  He17     1.0000 0.93798  0.63317  0.62453  Biso   1.000  He
  He18     1.0000 0.94313  0.60845  0.60122  Biso   1.000  He
  Ne18     1.0000 0.96604  0.58441  0.60594  Biso   1.000  Ne
  Ne19     1.0000 0.21655  0.30440  0.45881  Biso   1.000  Ne
  He19     1.0000 0.20766  0.33504  0.46229  Biso   1.000  He
  He20     1.0000 0.17849  0.34379  0.45222  Biso   1.000  He
  Ne20     1.0000 0.17545  0.37548  0.44937  Biso   1.000  Ne
  Ne21     1.0000 0.76596  0.16721  0.61352  Biso   1.000  Ne
  He21     1.0000 0.74276  0.18921  0.60462  Biso   1.000  He
  He22     1.0000 0.71622  0.19062  0.62215  Biso   1.000  He
  Ne22     1.0000 0.69017  0.20891  0.61023  Biso   1.000  Ne
  Ne23     1.0000 0.12732  0.37728  0.34156  Biso   1.000  Ne
  He23     1.0000 0.12489  0.35728  0.36845  Biso   1.000  He
  He24     1.0000 0.09755  0.34022  0.36927  Biso   1.000  He
  Ne24     1.0000 0.09155  0.31806  0.39238  Biso   1.000  Ne
  Ne25     1.0000 0.13488  0.12085  0.81678  Biso   1.000  Ne
  He25     1.0000 0.11718  0.10163  0.83923  Biso   1.000  He
  He26     1.0000 0.12737  0.07049  0.84272  Biso   1.000  He
  Ne26     1.0000 0.10563  0.05543  0.86729  Biso   1.000  Ne
  Ne27     1.0000 0.42703  0.37812  0.87049  Biso   1.000  Ne
  He27     1.0000 0.42681  0.34827  0.88253  Biso   1.000  He
  He28     1.0000 0.42539  0.34676  0.91646  Biso   1.000  He
  Ne28     1.0000 0.42225  0.31344  0.92743  Biso   1.000  Ne
  Ne29     1.0000 0.81588  0.57013  0.42444  Biso   1.000  Ne
  He29     1.0000 0.80143  0.57713  0.45469  Biso   1.000  He
  He30     1.0000 0.76687  0.58469  0.45164  Biso   1.000  He
  Ne30     1.0000 0.75123  0.58808  0.48060  Biso   1.000  Ne
  Ne31     1.0000 0.30419  0.54627  0.94073  Biso   1.000  Ne
  He31     1.0000 0.31623  0.54173  0.90984  Biso   1.000  He
  He32     1.0000 0.29294  0.53633  0.88500  Biso   1.000  He
  Ne32     1.0000 0.30479  0.53341  0.85362  Biso   1.000  Ne
  Ne33     1.0000 0.59271  0.09958  0.47947  Biso   1.000  Ne
  He33     1.0000 0.59098  0.12851  0.46425  Biso   1.000  He
  He34     1.0000 0.59362  0.12423  0.42970  Biso   1.000  He
  Ne34     1.0000 0.59662  0.15360  0.41377  Biso   1.000  Ne
  Ne35     1.0000 0.37342  0.05661  0.46060  Biso   1.000  Ne
  He35     1.0000 0.39882  0.07707  0.46172  Biso   1.000  He
  He36     1.0000 0.40775  0.08612  0.43088  Biso   1.000  He
  Ne36     1.0000 0.43835  0.10130  0.43049  Biso   1.000  Ne
  Ne37     1.0000 0.48331  0.02612  0.52936  Biso   1.000  Ne
  He37     1.0000 0.46029  0.01431  0.51164  Biso   1.000  He
  He38     1.0000 0.45869  0.98117  0.51014  Biso   1.000  He
  Ne38     1.0000 0.43857  0.97102  0.48791  Biso   1.000  Ne
  Ne39     1.0000 0.55976  0.57373  0.97191  Biso   1.000  Ne
  He39     1.0000 0.53219  0.55651  0.97872  Biso   1.000  He
  He40     1.0000 0.53190  0.54666  0.01156  Biso   1.000  He
  Ne40     1.0000 0.50608  0.52780  0.01788  Biso   1.000  Ne
  Ne41     1.0000 0.93530  0.93639  0.96191  Biso   1.000  Ne
  He41     1.0000 0.94743  0.96451  0.96667  Biso   1.000  He
  He42     1.0000 0.97899  0.96638  0.96338  Biso   1.000  He
  Ne42     1.0000 0.98813  0.99731  0.96677  Biso   1.000  Ne
  Ne43     1.0000 0.59836  0.55709  0.11260  Biso   1.000  Ne
  He43     1.0000 0.62795  0.56766  0.11825  Biso   1.000  He
  He44     1.0000 0.62749  0.59971  0.10960  Biso   1.000  He
  Ne44     1.0000 0.65637  0.61406  0.11418  Biso   1.000  Ne
  Ne45     1.0000 0.13056  0.21764  0.72405  Biso   1.000  Ne
  He45     1.0000 0.10419  0.19637  0.71856  Biso   1.000  He
  He46     1.0000 0.07448  0.20897  0.70880  Biso   1.000  He
  Ne46     1.0000 0.05076  0.18814  0.70226  Biso   1.000  Ne
  Ne47     1.0000 0.92586  0.14422  0.13475  Biso   1.000  Ne
  He47     1.0000 0.92602  0.11460  0.14625  Biso   1.000  He
  He48     1.0000 0.90777  0.09345  0.12870  Biso   1.000  He
  Ne48     1.0000 0.90498  0.06588  0.14605  Biso   1.000  Ne
  Ne49     1.0000 0.00789  0.50848  0.48474  Biso   1.000  Ne
  He49     1.0000 0.00650  0.47642  0.47940  Biso   1.000  He
  He50     1.0000 0.99067  0.46858  0.45344  Biso   1.000  He
  Ne50     1.0000 0.99042  0.43624  0.44870  Biso   1.000  Ne
  Ne51     1.0000 0.82955  0.35218  0.60728  Biso   1.000  Ne
  He51     1.0000 0.85303  0.37302  0.61080  Biso   1.000  He
  He52     1.0000 0.88289  0.36384  0.60771  Biso   1.000  He
  Ne52     1.0000 0.90386  0.38701  0.61975  Biso   1.000  Ne
  Ne53     1.0000 0.92844  0.76966  0.32875  Biso   1.000  Ne
  He53     1.0000 0.89870  0.76838  0.31411  Biso   1.000  He
  He54     1.0000 0.89250  0.74036  0.29635  Biso   1.000  He
  Ne54     1.0000 0.86036  0.73819  0.28541  Biso   1.000  Ne
  Ne55     1.0000 0.43414  0.37324  0.14315  Biso   1.000  Ne
  He55     1.0000 0.42139  0.37343  0.17614  Biso   1.000  He
  He56     1.0000 0.40683  0.34600  0.18647  Biso   1.000  He
  Ne56     1.0000 0.39758  0.35010  0.21710  Biso   1.000  Ne
  Ne57     1.0000 0.19653  0.35046  0.75839  Biso   1.000  Ne
  He57     1.0000 0.19203  0.37030  0.73552  Biso   1.000  He
  He58     1.0000 0.19752  0.35807  0.70452  Biso   1.000  He
  Ne58     1.0000 0.19588  0.37897  0.68028  Biso   1.000  Ne
  Ne59     1.0000 0.93815  0.57995  0.48480  Biso   1.000  Ne
  He59     1.0000 0.93893  0.57658  0.45386  Biso   1.000  He
  He60     1.0000 0.93422  0.54640  0.44182  Biso   1.000  He
  Ne60     1.0000 0.93854  0.53989  0.40874  Biso   1.000  Ne
  Ne61     1.0000 0.67439  0.71938  0.60065  Biso   1.000  Ne
  He61     1.0000 0.68641  0.75144  0.60826  Biso   1.000  He
  He62     1.0000 0.66302  0.77612  0.60824  Biso   1.000  He
  Ne62     1.0000 0.67394  0.80742  0.61618  Biso   1.000  Ne
  Ne63     1.0000 0.09126  0.32192  0.60969  Biso   1.000  Ne
  He63     1.0000 0.09992  0.29384  0.62589  Biso   1.000  He
  He64     1.0000 0.13229  0.28508  0.61993  Biso   1.000  He
  Ne64     1.0000 0.14483  0.25819  0.63304  Biso   1.000  Ne
  Ne65     1.0000 0.09952  0.53795  0.39393  Biso   1.000  Ne
  He65     1.0000 0.09010  0.54048  0.42812  Biso   1.000  He
  He66     1.0000 0.09029  0.57021  0.43746  Biso   1.000  He
  Ne66     1.0000 0.07557  0.57281  0.46751  Biso   1.000  Ne
  Ne67     1.0000 0.54871  0.46060  0.11454  Biso   1.000  Ne
  He67     1.0000 0.54128  0.43116  0.10491  Biso   1.000  He
  He68     1.0000 0.56084  0.41883  0.08203  Biso   1.000  He
  Ne68     1.0000 0.55418  0.39142  0.06704  Biso   1.000  Ne
  Ne69     1.0000 0.43063  0.68256  0.14369  Biso   1.000  Ne
  He69     1.0000 0.42324  0.65880  0.16747  Biso   1.000  He
  He70     1.0000 0.43212  0.66688  0.19915  Biso   1.000  He
  Ne70     1.0000 0.41699  0.64754  0.22406  Biso   1.000  Ne
  Ne71     1.0000 0.36218  0.38968  0.93862  Biso   1.000  Ne
  He71     1.0000 0.33521  0.37744  0.92090  Biso   1.000  He
  He72     1.0000 0.34633  0.36597  0.89157  Biso   1.000  He
  Ne72     1.0000 0.32485  0.35425  0.86897  Biso   1.000  Ne
  Ne73     1.0000 0.23138  0.86644  0.27350  Biso   1.000  Ne
  He73     1.0000 0.21976  0.86263  0.24310  Biso   1.000  He
  He74     1.0000 0.19409  0.84219  0.23928  Biso   1.000  He
  Ne74     1.0000 0.18629  0.83539  0.20847  Biso   1.000  Ne
  Ne75     1.0000 0.91887  0.81401  0.10102  Biso   1.000  Ne
  He75     1.0000 0.91356  0.79657  0.12659  Biso   1.000  He
  He76     1.0000 0.89402  0.80883  0.14877  Biso   1.000  He
  Ne76     1.0000 0.88725  0.78761  0.17411  Biso   1.000  Ne
  Ne77     1.0000 0.92233  0.03428  0.00649  Biso   1.000  Ne
  He77     1.0000 0.91580  0.04155  0.97489  Biso   1.000  He
  He78     1.0000 0.93625  0.06238  0.95799  Biso   1.000  He
  Ne78     1.0000 0.92942  0.06096  0.92607  Biso   1.000  Ne
  Ne79     1.0000 0.60411  0.07366  0.31756  Biso   1.000  Ne
  He79     1.0000 0.58944  0.06022  0.34323  Biso   1.000  He
  He80     1.0000 0.59605  0.07562  0.37035  Biso   1.000  He
  Ne80     1.0000 0.58231  0.06026  0.39816  Biso   1.000  Ne
  Ne81     1.0000 0.88149  0.65483  0.45679  Biso   1.000  Ne
  He81     1.0000 0.88228  0.65916  0.42292  Biso   1.000  He
  He82     1.0000 0.91176  0.66309  0.41225  Biso   1.000  He
  Ne82     1.0000 0.91206  0.67544  0.38345  Biso   1.000  Ne
  Ne83     1.0000 0.08871  0.34930  0.69912  Biso   1.000  Ne
  He83     1.0000 0.09567  0.35403  0.73181  Biso   1.000  He
  He84     1.0000 0.08202  0.38130  0.74616  Biso   1.000  He
  Ne84     1.0000 0.08230  0.37931  0.77926  Biso   1.000  Ne
  Ne85     1.0000 0.58269  0.76101  0.35124  Biso   1.000  Ne
  He85     1.0000 0.58551  0.79011  0.33442  Biso   1.000  He
  He86     1.0000 0.60448  0.78904  0.30596  Biso   1.000  He
  Ne86     1.0000 0.61065  0.81662  0.29698  Biso   1.000  Ne
  Ne87     1.0000 0.09015  0.55352  0.30167  Biso   1.000  Ne
  He87     1.0000 0.08351  0.57847  0.32573  Biso   1.000  He
  He88     1.0000 0.06951  0.60627  0.31430  Biso   1.000  He
  Ne88     1.0000 0.06476  0.62897  0.33838  Biso   1.000  Ne
  Ne89     1.0000 0.92500  0.61709  0.77680  Biso   1.000  Ne
  He89     1.0000 0.92441  0.59548  0.75081  Biso   1.000  He
  He90     1.0000 0.93735  0.60722  0.72166  Biso   1.000  He
  Ne90     1.0000 0.93914  0.58267  0.69853  Biso   1.000  Ne
  Ne91     1.0000 0.11283  0.14260  0.94655  Biso   1.000  Ne
  He91     1.0000 0.10315  0.15590  0.91761  Biso   1.000  He
  He92     1.0000 0.10823  0.18934  0.91310  Biso   1.000  He
  Ne92     1.0000 0.09958  0.20271  0.88485  Biso   1.000  Ne
  Ne93     1.0000 0.84270  0.67358  0.71006  Biso   1.000  Ne
  He93     1.0000 0.82788  0.68518  0.68226  Biso   1.000  He
  He94     1.0000 0.84451  0.67695  0.65498  Biso   1.000  He
  Ne94     1.0000 0.83724  0.69121  0.62507  Biso   1.000  Ne
  Ne95     1.0000 0.59681  0.03533  0.75276  Biso   1.000  Ne
  He95     1.0000 0.61195  0.06651  0.74642  Biso   1.000  He
  He96     1.0000 0.59674  0.07838  0.71916  Biso   1.000  He
  Ne96     1.0000 0.60585  0.10876  0.71031  Biso   1.000  Ne
  Ne97     1.0000 0.26140  0.77595  0.42108  Biso   1.000  Ne
  He97     1.0000 0.29076  0.79153  0.43182  Biso   1.000  He
  He98     1.0000 0.30954  0.80256  0.40605  Biso   1.000  He
  Ne98     1.0000 0.33662  0.81676  0.41809  Biso   1.000  Ne
  Ne99     1.0000 0.86603  0.32844  0.45171  Biso   1.000  Ne
  He99     1.0000 0.89631  0.31799  0.44403  Biso   1.000  He
  He100    1.0000 0.90208  0.28539  0.44560  Biso   1.000  He
  Ne100    1.0000 0.93302  0.27435  0.43934  Biso   1.000  Ne
  Ne101    1.0000 0.92958  0.87186  0.84048  Biso   1.000  Ne
  He101    1.0000 0.93498  0.85906  0.87055  Biso   1.000  He
  He102    1.0000 0.90715  0.84366  0.88237  Biso   1.000  He
  Ne102    1.0000 0.91169  0.83860  0.91559  Biso   1.000  Ne
  Ne103    1.0000 0.45629  0.71356  0.44105  Biso   1.000  Ne
  He103    1.0000 0.44633  0.74544  0.44594  Biso   1.000  He
  He104    1.0000 0.41465  0.74890  0.43860  Biso   1.000  He
  Ne104    1.0000 0.40230  0.77848  0.43835  Biso   1.000  Ne
  Ne105    1.0000 0.85726  0.90498  0.89688  Biso   1.000  Ne
  He105    1.0000 0.82823  0.89236  0.90525  Biso   1.000  He
  He106    1.0000 0.82708  0.88195  0.93705  Biso   1.000  He
  Ne106    1.0000 0.79647  0.87386  0.94722  Biso   1.000  Ne
  Ne107    1.0000 0.58156  0.79899  0.69100  Biso   1.000  Ne
  He107    1.0000 0.57585  0.80961  0.72348  Biso   1.000  He
  He108    1.0000 0.56192  0.78701  0.74549  Biso   1.000  He
  Ne108    1.0000 0.56395  0.79587  0.77482  Biso   1.000  Ne
  Ne109    1.0000 0.85032  0.90369  0.22565  Biso   1.000  Ne
  He109    1.0000 0.82220  0.88527  0.22823  Biso   1.000  He
  He110    1.0000 0.81660  0.86196  0.20428  Biso   1.000  He
  Ne110    1.0000 0.82547  0.83035  0.20869  Biso   1.000  Ne
  Ne111    1.0000 0.64863  0.05592  0.44499  Biso   1.000  Ne
  He111    1.0000 0.67272  0.07877  0.43992  Biso   1.000  He
  He112    1.0000 0.70450  0.06811  0.44102  Biso   1.000  He
  Ne112    1.0000 0.72818  0.09231  0.43423  Biso   1.000  Ne
  Ne113    1.0000 0.58164  0.55358  0.20093  Biso   1.000  Ne
  He113    1.0000 0.58610  0.58117  0.21718  Biso   1.000  He
  He114    1.0000 0.58616  0.60560  0.19632  Biso   1.000  He
  Ne114    1.0000 0.59611  0.63532  0.20926  Biso   1.000  Ne
  Ne115    1.0000 0.12471  0.40575  0.61902  Biso   1.000  Ne
  He115    1.0000 0.09535  0.41589  0.60660  Biso   1.000  He
  He116    1.0000 0.07283  0.42053  0.62921  Biso   1.000  He
  Ne116    1.0000 0.04511  0.43522  0.61787  Biso   1.000  Ne
  Ne117    1.0000 0.02297  0.06080  0.01100  Biso   1.000  Ne
  He117    1.0000 0.04872  0.03952  0.01864  Biso   1.000  He
  He118    1.0000 0.07611  0.03491  0.99440  Biso   1.000  He
  Ne118    1.0000 0.10066  0.01545  0.00465  Biso   1.000  Ne
  Ne119    1.0000 0.34685  0.61865  0.13372  Biso   1.000  Ne
  He119    1.0000 0.32872  0.59687  0.11492  Biso   1.000  He
  He120    1.0000 0.33118  0.56480  0.12282  Biso   1.000  He
  Ne120    1.0000 0.31534  0.54282  0.10120  Biso   1.000  Ne
  Ne121    1.0000 0.08971  0.77077  0.95578  Biso   1.000  Ne
  He121    1.0000 0.08203  0.79554  0.93692  Biso   1.000  He
  He122    1.0000 0.09702  0.79110  0.90839  Biso   1.000  He
  Ne122    1.0000 0.09715  0.81752  0.89086  Biso   1.000  Ne
  Ne123    1.0000 0.91739  0.52755  0.55722  Biso   1.000  Ne
  He123    1.0000 0.92363  0.50536  0.57954  Biso   1.000  He
  He124    1.0000 0.95599  0.50378  0.58831  Biso   1.000  He
  Ne124    1.0000 0.96294  0.47923  0.61273  Biso   1.000  Ne
  Ne125    1.0000 0.63524  0.14646  0.62559  Biso   1.000  Ne
  He125    1.0000 0.65494  0.12219  0.63701  Biso   1.000  He
  He126    1.0000 0.67499  0.10872  0.61600  Biso   1.000  He
  Ne126    1.0000 0.68824  0.08113  0.62850  Biso   1.000  Ne
  Ne127    1.0000 0.43328  0.17617  0.69294  Biso   1.000  Ne
  He127    1.0000 0.42516  0.17106  0.66057  Biso   1.000  He
  He128    1.0000 0.43026  0.14110  0.64833  Biso   1.000  He
  Ne128    1.0000 0.42304  0.13836  0.61786  Biso   1.000  Ne
  Ne129    1.0000 0.59405  0.99948  0.49249  Biso   1.000  Ne
  He129    1.0000 0.56883  0.98032  0.49819  Biso   1.000  He
  He130    1.0000 0.57418  0.95117  0.48359  Biso   1.000  He
  Ne130    1.0000 0.55147  0.92969  0.49561  Biso   1.000  Ne
  Ne131    1.0000 0.41977  0.72813  0.64587  Biso   1.000  Ne
  He131    1.0000 0.39854  0.75093  0.65063  Biso   1.000  He
  He132    1.0000 0.40447  0.77016  0.67760  Biso   1.000  He
  Ne132    1.0000 0.38383  0.79593  0.67876  Biso   1.000  Ne
  Ne133    1.0000 0.27477  0.60140  0.36465  Biso   1.000  Ne
  He133    1.0000 0.29172  0.57394  0.36791  Biso   1.000  He
  He134    1.0000 0.28846  0.55400  0.34160  Biso   1.000  He
  Ne134    1.0000 0.30655  0.52508  0.34771  Biso   1.000  Ne
  Ne135    1.0000 0.75462  0.63584  0.69046  Biso   1.000  Ne
  He135    1.0000 0.77269  0.61774  0.71367  Biso   1.000  He
  He136    1.0000 0.75643  0.59157  0.72892  Biso   1.000  He
  Ne136    1.0000 0.77462  0.57439  0.74901  Biso   1.000  Ne
  Ne137    1.0000 0.29283  0.39214  0.14040  Biso   1.000  Ne
  He137    1.0000 0.32480  0.38500  0.14061  Biso   1.000  He
  He138    1.0000 0.33660  0.38963  0.10827  Biso   1.000  He
  Ne138    1.0000 0.36715  0.37868  0.10047  Biso   1.000  Ne
  Ne139    1.0000 0.62792  0.55062  0.95418  Biso   1.000  Ne
  He139    1.0000 0.65373  0.54125  0.93836  Biso   1.000  He
  He140    1.0000 0.67551  0.56472  0.92759  Biso   1.000  He
  Ne140    1.0000 0.70251  0.54950  0.91221  Biso   1.000  Ne
  Ne141    1.0000 0.58481  0.33763  0.14810  Biso   1.000  Ne
  He141    1.0000 0.59383  0.31253  0.12827  Biso   1.000  He
  He142    1.0000 0.62752  0.30557  0.13103  Biso   1.000  He
  Ne142    1.0000 0.64645  0.31653  0.10676  Biso   1.000  Ne
  Ne143    1.0000 0.22695  0.89108  0.86214  Biso   1.000  Ne
  He143    1.0000 0.20399  0.89283  0.84087  Biso   1.000  He
  He144    1.0000 0.17306  0.88503  0.85460  Biso   1.000  He
  Ne144    1.0000 0.14975  0.87857  0.82971  Biso   1.000  Ne
  Ne145    1.0000 0.61227  0.86431  0.59351  Biso   1.000  Ne
  He145    1.0000 0.59235  0.88876  0.59375  Biso   1.000  He
  He146    1.0000 0.60420  0.92112  0.58901  Biso   1.000  He
  Ne146    1.0000 0.58229  0.94279  0.58352  Biso   1.000  Ne
  Ne147    1.0000 0.24165  0.85108  0.94892  Biso   1.000  Ne
  He147    1.0000 0.21026  0.86226  0.95627  Biso   1.000  He
  He148    1.0000 0.18618  0.84853  0.93814  Biso   1.000  He
  Ne148    1.0000 0.15760  0.85859  0.94575  Biso   1.000  Ne
  Ne149    1.0000 0.01462  0.91904  0.08194  Biso   1.000  Ne
  He149    1.0000 0.98490  0.92334  0.07006  Biso   1.000  He
  He150    1.0000 0.97426  0.89683  0.05431  Biso   1.000  He
  Ne150    1.0000 0.94371  0.89927  0.04662  Biso   1.000  Ne
  Ne151    1.0000 0.08450  0.90666  0.18673  Biso   1.000  Ne
  He151    1.0000 0.09560  0.89601  0.21669  Biso   1.000  He
  He152    1.0000 0.07140  0.88972  0.24080  Biso   1.000  He
  Ne152    1.0000 0.08446  0.87493  0.26502  Biso   1.000  Ne
  Ne153    1.0000 0.16065  0.06519  0.92580  Biso   1.000  Ne
  He153    1.0000 0.18143  0.09042  0.92403  Biso   1.000  He
  He154    1.0000 0.20826  0.09174  0.94577  Biso   1.000  He
  Ne154    1.0000 0.22588  0.11855  0.94371  Biso   1.000  Ne
  Ne155    1.0000 0.00040  0.05239  0.09523  Biso   1.000  Ne
  He155    1.0000 0.98157  0.02534  0.08385  Biso   1.000  He
  He156    1.0000 0.95810  0.01827  0.10580  Biso   1.000  He
  Ne156    1.0000 0.94105  0.99184  0.09759  Biso   1.000  Ne
  Ne157    1.0000 0.68831  0.89445  0.66241  Biso   1.000  Ne
  He157    1.0000 0.65591  0.90034  0.66598  Biso   1.000  He
  He158    1.0000 0.63948  0.87539  0.68320  Biso   1.000  He
  Ne158    1.0000 0.60678  0.88252  0.68479  Biso   1.000  Ne
  Ne159    1.0000 0.84972  0.07451  0.94313  Biso   1.000  Ne
  He159    1.0000 0.86078  0.08251  0.91148  Biso   1.000  He
  He160    1.0000 0.85076  0.06400  0.88995  Biso   1.000  He
  Ne160    1.0000 0.86041  0.07177  0.85926  Biso   1.000  Ne
  Ne161    1.0000 0.07598  0.42639  0.46391  Biso   1.000  Ne
  He161    1.0000 0.08892  0.39769  0.47479  Biso   1.000  He
  He162    1.0000 0.07855  0.36739  0.45984  Biso   1.000  He
  Ne162    1.0000 0.09426  0.33926  0.47100  Biso   1.000  Ne
  Ne163    1.0000 0.84193  0.56212  0.31289  Biso   1.000  Ne
  He163    1.0000 0.85977  0.58598  0.33053  Biso   1.000  He
  He164    1.0000 0.88816  0.57603  0.33832  Biso   1.000  He
  Ne164    1.0000 0.90435  0.59315  0.36077  Biso   1.000  Ne
  Ne165    1.0000 0.58420  0.49208  0.00596  Biso   1.000  Ne
  He165    1.0000 0.57433  0.46602  0.98857  Biso   1.000  He
  He166    1.0000 0.54246  0.46386  0.98551  Biso   1.000  He
  Ne166    1.0000 0.53232  0.43760  0.97158  Biso   1.000  Ne
  Ne167    1.0000 0.39073  0.75488  0.34990  Biso   1.000  Ne
  He167    1.0000 0.41168  0.78048  0.35729  Biso   1.000  He
  He168    1.0000 0.39779  0.80902  0.34524  Biso   1.000  He
  Ne168    1.0000 0.41579  0.83428  0.34491  Biso   1.000  Ne
  Ne169    1.0000 0.58294  0.64920  0.87994  Biso   1.000  Ne
  He169    1.0000 0.59946  0.62582  0.86469  Biso   1.000  He
  He170    1.0000 0.58766  0.59624  0.87054  Biso   1.000  He
  Ne170    1.0000 0.60707  0.57017  0.85966  Biso   1.000  Ne
  Ne171    1.0000 0.38688  0.05874  0.61020  Biso   1.000  Ne
  He171    1.0000 0.35438  0.04701  0.61715  Biso   1.000  He
  He172    1.0000 0.33026  0.06950  0.61344  Biso   1.000  He
  Ne172    1.0000 0.30007  0.05614  0.62093  Biso   1.000  Ne
  Ne173    1.0000 0.94975  0.15035  0.78581  Biso   1.000  Ne
  He173    1.0000 0.93001  0.14814  0.81480  Biso   1.000  He
  He174    1.0000 0.94489  0.12633  0.83733  Biso   1.000  He
  Ne174    1.0000 0.92614  0.12077  0.86526  Biso   1.000  Ne
  Ne175    1.0000 0.90318  0.14685  0.96765  Biso   1.000  Ne
  He175    1.0000 0.88772  0.17523  0.96484  Biso   1.000  He
  He176    1.0000 0.90387  0.20336  0.95432  Biso   1.000  He
  Ne176    1.0000 0.90332  0.20986  0.92102  Biso   1.000  Ne
  Ne177    1.0000 0.85520  0.56889  0.62625  Biso   1.000  Ne
  He177    1.0000 0.86953  0.56178  0.65337  Biso   1.000  He
  He178    1.0000 0.84936  0.56138  0.67997  Biso   1.000  He
  Ne178    1.0000 0.85006  0.58930  0.69876  Biso   1.000  Ne
  Ne179    1.0000 0.36116  0.56984  0.27842  Biso   1.000  Ne
  He179    1.0000 0.36804  0.55109  0.25236  Biso   1.000  He
  He180    1.0000 0.34932  0.55442  0.22393  Biso   1.000  He
  Ne180    1.0000 0.35976  0.54085  0.19726  Biso   1.000  Ne
  Ne181    1.0000 0.09077  0.50003  0.52386  Biso   1.000  Ne
  He181    1.0000 0.07131  0.51215  0.54759  Biso   1.000  He
  He182    1.0000 0.05924  0.54388  0.54212  Biso   1.000  He
  Ne182    1.0000 0.03683  0.55151  0.56517  Biso   1.000  Ne
  Ne183    1.0000 0.58507  0.89417  0.32887  Biso   1.000  Ne
  He183    1.0000 0.61691  0.89942  0.33924  Biso   1.000  He
  He184    1.0000 0.63050  0.87128  0.35203  Biso   1.000  He
  Ne184    1.0000 0.66359  0.87535  0.36180  Biso   1.000  Ne
  Ne185    1.0000 0.09481  0.90832  0.09670  Biso   1.000  Ne
  He185    1.0000 0.08597  0.89882  0.06620  Biso   1.000  He
  He186    1.0000 0.08465  0.92290  0.04115  Biso   1.000  He
  Ne186    1.0000 0.07786  0.91200  0.01162  Biso   1.000  Ne
  Ne187    1.0000 0.09981  0.58380  0.72355  Biso   1.000  Ne
  He187    1.0000 0.11874  0.57605  0.69717  Biso   1.000  He
  He188    1.0000 0.14955  0.56794  0.70179  Biso   1.000  He
  Ne188    1.0000 0.16566  0.55756  0.67411  Biso   1.000  Ne
  Ne189    1.0000 0.20067  0.60983  0.43688  Biso   1.000  Ne
  He189    1.0000 0.18215  0.58388  0.43201  Biso   1.000  He
  He190    1.0000 0.19655  0.56558  0.40510  Biso   1.000  He
  Ne190    1.0000 0.18489  0.53501  0.40194  Biso   1.000  Ne
  Ne191    1.0000 0.06779  0.81256  0.18549  Biso   1.000  Ne
  He191    1.0000 0.08603  0.80428  0.15996  Biso   1.000  He
  He192    1.0000 0.06947  0.78746  0.13487  Biso   1.000  He
  Ne192    1.0000 0.09112  0.77486  0.11334  Biso   1.000  Ne
  Ne193    1.0000 0.62175  0.29849  0.95492  Biso   1.000  Ne
  He193    1.0000 0.63964  0.31782  0.93570  Biso   1.000  He
  He194    1.0000 0.65313  0.34503  0.95264  Biso   1.000  He
  Ne194    1.0000 0.67258  0.36716  0.93581  Biso   1.000  Ne
  Ne195    1.0000 0.45603  0.89188  0.47270  Biso   1.000  Ne
  He195    1.0000 0.42586  0.89389  0.45925  Biso   1.000  He
  He196    1.0000 0.42637  0.89941  0.42746  Biso   1.000  He
  Ne196    1.0000 0.39612  0.90022  0.41240  Biso   1.000  Ne
  Ne197    1.0000 0.46627  0.36616  0.99872  Biso   1.000  Ne
  He197    1.0000 0.46995  0.38493  0.02255  Biso   1.000  He
  He198    1.0000 0.44665  0.40779  0.02308  Biso   1.000  He
  Ne198    1.0000 0.44946  0.42477  0.05031  Biso   1.000  Ne
  Ne199    1.0000 0.90471  0.41104  0.46186  Biso   1.000  Ne
  He199    1.0000 0.89810  0.40439  0.42933  Biso   1.000  He
  He200    1.0000 0.92489  0.40212  0.40813  Biso   1.000  He
  Ne200    1.0000 0.91522  0.39269  0.37619  Biso   1.000  Ne
