data_image0
_cell_length_a       47.2235
_cell_length_b       46.6635
_cell_length_c       46.5877
_cell_angle_alpha    90
_cell_angle_beta     90
_cell_angle_gamma    90

_symmetry_space_group_name_H-M    "P 1"
_symmetry_int_tables_number       1

loop_
  _symmetry_equiv_pos_as_xyz
  'x, y, z'

loop_
  _atom_site_label
  _atom_site_occupancy
  _atom_site_fract_x
  _atom_site_fract_y
  _atom_site_fract_z
  _atom_site_thermal_displace_type
  _atom_site_B_iso_or_equiv
  _atom_site_type_symbol
  Ne1      1.0000 0.09372  0.56388  0.30448  Biso   1.000  Ne
  He1      1.0000 0.11573  0.55927  0.27940  Biso   1.000  He
  He2      1.0000 0.14615  0.55010  0.28563  Biso   1.000  He
  Ne2      1.0000 0.16605  0.54318  0.25801  Biso   1.000  Ne
  Ne3      1.0000 0.08604  0.08163  0.86565  Biso   1.000  Ne
  He3      1.0000 0.11279  0.10333  0.85990  Biso   1.000  He
  He4      1.0000 0.10404  0.12727  0.84141  Biso   1.000  He
  Ne4      1.0000 0.12984  0.14967  0.83322  Biso   1.000  Ne
  Ne5      1.0000 0.51116  0.83596  0.20562  Biso   1.000  Ne
  He5      1.0000 0.49767  0.84576  0.23458  Biso   1.000  He
  He6      1.0000 0.46606  0.83357  0.23716  Biso   1.000  He
  Ne6      1.0000 0.45456  0.84226  0.26903  Biso   1.000  Ne
  Ne7      1.0000 0.95778  0.11720  0.15333  Biso   1.000  Ne
  He7      1.0000 0.94393  0.13695  0.13317  Biso   1.000  He
  He8      1.0000 0.94730  0.16989  0.13987  Biso   1.000  He
  Ne8      1.0000 0.93174  0.18577  0.11791  Biso   1.000  Ne
  Ne9      1.0000 0.56107  0.06291  0.55716  Biso   1.000  Ne
  He9      1.0000 0.53521  0.07795  0.57396  Biso   1.000  He
  He10     1.0000 0.50400  0.07069  0.56338  Biso   1.000  He
  Ne10     1.0000 0.48910  0.04872  0.58107  Biso   1.000  Ne
  Ne11     1.0000 0.10276  0.17576  0.94149  Biso   1.000  Ne
  He11     1.0000 0.11830  0.19379  0.91783  Biso   1.000  He
  He12     1.0000 0.15280  0.19289  0.92080  Biso   1.000  He
  Ne12     1.0000 0.17043  0.21734  0.90646  Biso   1.000  Ne
  Ne13     1.0000 0.42377  0.85274  0.61519  Biso   1.000  Ne
  He13     1.0000 0.41242  0.82513  0.62906  Biso   1.000  He
  He14     1.0000 0.42982  0.80156  0.61810  Biso   1.000  He
  Ne14     1.0000 0.42545  0.77320  0.63290  Biso   1.000  Ne
  Ne15     1.0000 0.12560  0.29217  0.67376  Biso   1.000  Ne
  He15     1.0000 0.13227  0.28988  0.64292  Biso   1.000  He
  He16     1.0000 0.16372  0.28533  0.63484  Biso   1.000  He
  Ne16     1.0000 0.18102  0.31177  0.62738  Biso   1.000  Ne
  Ne17     1.0000 0.67713  0.91581  0.46831  Biso   1.000  Ne
  He17     1.0000 0.64657  0.91076  0.45880  Biso   1.000  He
  He18     1.0000 0.64735  0.89112  0.43437  Biso   1.000  He
  Ne18     1.0000 0.61763  0.88836  0.42049  Biso   1.000  Ne
  Ne19     1.0000 0.44551  0.56241  0.19880  Biso   1.000  Ne
  He19     1.0000 0.42325  0.57750  0.21206  Biso   1.000  He
  He20     1.0000 0.40179  0.56027  0.23131  Biso   1.000  He
  Ne20     1.0000 0.37768  0.58041  0.24414  Biso   1.000  Ne
  Ne21     1.0000 0.74399  0.04177  0.93528  Biso   1.000  Ne
  He21     1.0000 0.77105  0.05357  0.91984  Biso   1.000  He
  He22     1.0000 0.78855  0.07704  0.93546  Biso   1.000  He
  Ne22     1.0000 0.81361  0.08577  0.91894  Biso   1.000  Ne
  Ne23     1.0000 0.02381  0.02626  0.97847  Biso   1.000  Ne
  He23     1.0000 0.05389  0.01971  0.99216  Biso   1.000  He
  He24     1.0000 0.07913  0.03678  0.97670  Biso   1.000  He
  Ne24     1.0000 0.10904  0.02495  0.98825  Biso   1.000  Ne
  Ne25     1.0000 0.87710  0.31548  0.62693  Biso   1.000  Ne
  He25     1.0000 0.86069  0.34059  0.64005  Biso   1.000  He
  He26     1.0000 0.85498  0.36363  0.61770  Biso   1.000  He
  Ne26     1.0000 0.84345  0.39382  0.62733  Biso   1.000  Ne
  Ne27     1.0000 0.33308  0.88858  0.58519  Biso   1.000  Ne
  He27     1.0000 0.34032  0.85806  0.59875  Biso   1.000  He
  He28     1.0000 0.31943  0.83464  0.58802  Biso   1.000  He
  Ne28     1.0000 0.32389  0.80738  0.60799  Biso   1.000  Ne
  Ne29     1.0000 0.45277  0.79716  0.43922  Biso   1.000  Ne
  He29     1.0000 0.42273  0.80850  0.43154  Biso   1.000  He
  He30     1.0000 0.39850  0.78551  0.43059  Biso   1.000  He
  Ne30     1.0000 0.36670  0.79802  0.42634  Biso   1.000  Ne
  Ne31     1.0000 0.61360  0.94127  0.59614  Biso   1.000  Ne
  He31     1.0000 0.58604  0.95943  0.59612  Biso   1.000  He
  He32     1.0000 0.56451  0.94784  0.61944  Biso   1.000  He
  Ne32     1.0000 0.53481  0.95651  0.61542  Biso   1.000  Ne
  Ne33     1.0000 0.94940  0.43820  0.46506  Biso   1.000  Ne
  He33     1.0000 0.91631  0.44125  0.45683  Biso   1.000  He
  He34     1.0000 0.89806  0.41520  0.44271  Biso   1.000  He
  Ne34     1.0000 0.86748  0.42335  0.43348  Biso   1.000  Ne
  Ne35     1.0000 0.11446  0.92143  0.15476  Biso   1.000  Ne
  He35     1.0000 0.11762  0.89797  0.17893  Biso   1.000  He
  He36     1.0000 0.11933  0.86667  0.16882  Biso   1.000  He
  Ne36     1.0000 0.12629  0.84590  0.19366  Biso   1.000  Ne
  Ne37     1.0000 0.05483  0.41334  0.53958  Biso   1.000  Ne
  He37     1.0000 0.04485  0.41646  0.57067  Biso   1.000  He
  He38     1.0000 0.02482  0.43994  0.57468  Biso   1.000  He
  Ne38     1.0000 0.01391  0.44413  0.60299  Biso   1.000  Ne
  Ne39     1.0000 0.69178  0.33424  0.91523  Biso   1.000  Ne
  He39     1.0000 0.66126  0.32009  0.92068  Biso   1.000  He
  He40     1.0000 0.64988  0.31732  0.95129  Biso   1.000  He
  Ne40     1.0000 0.62035  0.29935  0.95444  Biso   1.000  Ne
  Ne41     1.0000 0.60460  0.25799  0.13225  Biso   1.000  Ne
  He41     1.0000 0.60322  0.28981  0.12241  Biso   1.000  He
  He42     1.0000 0.60482  0.31477  0.14735  Biso   1.000  He
  Ne42     1.0000 0.60164  0.34626  0.13801  Biso   1.000  Ne
  Ne43     1.0000 0.87868  0.58788  0.38422  Biso   1.000  Ne
  He43     1.0000 0.86290  0.58688  0.41458  Biso   1.000  He
  He44     1.0000 0.82904  0.58600  0.41325  Biso   1.000  He
  Ne44     1.0000 0.81332  0.57786  0.44182  Biso   1.000  Ne
  Ne45     1.0000 0.80234  0.69773  0.64874  Biso   1.000  Ne
  He45     1.0000 0.81836  0.68229  0.62563  Biso   1.000  He
  He46     1.0000 0.82658  0.65103  0.62802  Biso   1.000  He
  Ne46     1.0000 0.84810  0.64093  0.60308  Biso   1.000  Ne
  Ne47     1.0000 0.69772  0.64415  0.11598  Biso   1.000  Ne
  He47     1.0000 0.68638  0.67276  0.11245  Biso   1.000  He
  He48     1.0000 0.70429  0.69504  0.09647  Biso   1.000  He
  Ne48     1.0000 0.68658  0.71773  0.08195  Biso   1.000  Ne
  Ne49     1.0000 0.58225  0.78148  0.65509  Biso   1.000  Ne
  He49     1.0000 0.58300  0.80419  0.63195  Biso   1.000  He
  He50     1.0000 0.58498  0.83597  0.64291  Biso   1.000  He
  Ne50     1.0000 0.58295  0.86196  0.61920  Biso   1.000  Ne
  Ne51     1.0000 0.95109  0.82362  0.94545  Biso   1.000  Ne
  He51     1.0000 0.94943  0.79608  0.92531  Biso   1.000  He
  He52     1.0000 0.92769  0.77203  0.93602  Biso   1.000  He
  Ne52     1.0000 0.90009  0.76980  0.91909  Biso   1.000  Ne
  Ne53     1.0000 0.83052  0.87786  0.16350  Biso   1.000  Ne
  He53     1.0000 0.84413  0.89483  0.14116  Biso   1.000  He
  He54     1.0000 0.87806  0.89478  0.14107  Biso   1.000  He
  Ne54     1.0000 0.89230  0.91421  0.11738  Biso   1.000  Ne
  Ne55     1.0000 0.44650  0.92267  0.60060  Biso   1.000  Ne
  He55     1.0000 0.44194  0.95247  0.58822  Biso   1.000  He
  He56     1.0000 0.43895  0.95865  0.55533  Biso   1.000  He
  Ne56     1.0000 0.43103  0.98911  0.54966  Biso   1.000  Ne
  Ne57     1.0000 0.09673  0.91717  0.84860  Biso   1.000  Ne
  He57     1.0000 0.10991  0.88698  0.86166  Biso   1.000  He
  He58     1.0000 0.11528  0.86580  0.83759  Biso   1.000  He
  Ne58     1.0000 0.13371  0.83686  0.84544  Biso   1.000  Ne
  Ne59     1.0000 0.13799  0.69377  0.66738  Biso   1.000  Ne
  He59     1.0000 0.14891  0.69676  0.63509  Biso   1.000  He
  He60     1.0000 0.13833  0.67296  0.61329  Biso   1.000  He
  Ne60     1.0000 0.14430  0.67988  0.58407  Biso   1.000  Ne
  Ne61     1.0000 0.17475  0.56476  0.59094  Biso   1.000  Ne
  He61     1.0000 0.16349  0.56536  0.62163  Biso   1.000  He
  He62     1.0000 0.18327  0.58226  0.64360  Biso   1.000  He
  Ne62     1.0000 0.16739  0.59307  0.67050  Biso   1.000  Ne
  Ne63     1.0000 0.14590  0.40410  0.40318  Biso   1.000  Ne
  He63     1.0000 0.13133  0.38491  0.42501  Biso   1.000  He
  He64     1.0000 0.10018  0.39500  0.43116  Biso   1.000  He
  Ne64     1.0000 0.08300  0.37541  0.45265  Biso   1.000  Ne
  Ne65     1.0000 0.62890  0.23657  0.46792  Biso   1.000  Ne
  He65     1.0000 0.63124  0.20605  0.45346  Biso   1.000  He
  He66     1.0000 0.64646  0.18342  0.47347  Biso   1.000  He
  Ne66     1.0000 0.64285  0.15354  0.46274  Biso   1.000  Ne
  Ne67     1.0000 0.55020  0.95856  0.43899  Biso   1.000  Ne
  He67     1.0000 0.55349  0.97845  0.46358  Biso   1.000  He
  He68     1.0000 0.54590  0.96396  0.49323  Biso   1.000  He
  Ne68     1.0000 0.54312  0.98526  0.51928  Biso   1.000  Ne
  Ne69     1.0000 0.64502  0.60422  0.81327  Biso   1.000  Ne
  He69     1.0000 0.64162  0.58348  0.83870  Biso   1.000  He
  He70     1.0000 0.66961  0.58437  0.85796  Biso   1.000  He
  Ne70     1.0000 0.66886  0.57046  0.88872  Biso   1.000  Ne
  Ne71     1.0000 0.60000  0.65080  0.11905  Biso   1.000  Ne
  He71     1.0000 0.61438  0.66112  0.14536  Biso   1.000  He
  He72     1.0000 0.59972  0.68243  0.16514  Biso   1.000  He
  Ne72     1.0000 0.61696  0.68832  0.19306  Biso   1.000  Ne
  Ne73     1.0000 0.42455  0.42671  0.86772  Biso   1.000  Ne
  He73     1.0000 0.41138  0.43162  0.83645  Biso   1.000  He
  He74     1.0000 0.38369  0.41905  0.83092  Biso   1.000  He
  Ne74     1.0000 0.36649  0.42540  0.80416  Biso   1.000  Ne
  Ne75     1.0000 0.65469  0.87582  0.69017  Biso   1.000  Ne
  He75     1.0000 0.63666  0.88059  0.71816  Biso   1.000  He
  He76     1.0000 0.60472  0.87987  0.71627  Biso   1.000  He
  Ne76     1.0000 0.59297  0.88327  0.74769  Biso   1.000  Ne
  Ne77     1.0000 0.41589  0.64970  0.10212  Biso   1.000  Ne
  He77     1.0000 0.44318  0.63544  0.10738  Biso   1.000  He
  He78     1.0000 0.44952  0.61371  0.08200  Biso   1.000  He
  Ne78     1.0000 0.47907  0.59981  0.08514  Biso   1.000  Ne
  Ne79     1.0000 0.44103  0.59091  0.82368  Biso   1.000  Ne
  He79     1.0000 0.44055  0.62413  0.82708  Biso   1.000  He
  He80     1.0000 0.43542  0.64392  0.79943  Biso   1.000  He
  Ne80     1.0000 0.43748  0.67714  0.80634  Biso   1.000  Ne
  Ne81     1.0000 0.11307  0.45467  0.57517  Biso   1.000  Ne
  He81     1.0000 0.08975  0.47913  0.58259  Biso   1.000  He
  He82     1.0000 0.09216  0.50428  0.56049  Biso   1.000  He
  Ne82     1.0000 0.07030  0.52748  0.56616  Biso   1.000  Ne
  Ne83     1.0000 0.38463  0.40506  0.12480  Biso   1.000  Ne
  He83     1.0000 0.38216  0.41156  0.15734  Biso   1.000  He
  He84     1.0000 0.40708  0.40417  0.17707  Biso   1.000  He
  Ne84     1.0000 0.39884  0.40651  0.21234  Biso   1.000  Ne
  Ne85     1.0000 0.21323  0.10175  0.86124  Biso   1.000  Ne
  He85     1.0000 0.18839  0.09708  0.88222  Biso   1.000  He
  He86     1.0000 0.18270  0.11838  0.90943  Biso   1.000  He
  Ne86     1.0000 0.18767  0.10620  0.94012  Biso   1.000  Ne
  Ne87     1.0000 0.77712  0.84106  0.25325  Biso   1.000  Ne
  He87     1.0000 0.79634  0.86604  0.24897  Biso   1.000  He
  He88     1.0000 0.79439  0.88758  0.27414  Biso   1.000  He
  Ne88     1.0000 0.81311  0.91364  0.27149  Biso   1.000  Ne
  Ne89     1.0000 0.45460  0.92721  0.48628  Biso   1.000  Ne
  He89     1.0000 0.44333  0.91267  0.45964  Biso   1.000  He
  He90     1.0000 0.46182  0.91251  0.43250  Biso   1.000  He
  Ne90     1.0000 0.44894  0.89089  0.40916  Biso   1.000  Ne
  Ne91     1.0000 0.58685  0.30444  0.33007  Biso   1.000  Ne
  He91     1.0000 0.59981  0.32708  0.31175  Biso   1.000  He
  He92     1.0000 0.61840  0.31615  0.28900  Biso   1.000  He
  Ne92     1.0000 0.63766  0.33884  0.27480  Biso   1.000  Ne
  Ne93     1.0000 0.93313  0.87474  0.83070  Biso   1.000  Ne
  He93     1.0000 0.90051  0.87579  0.83309  Biso   1.000  He
  He94     1.0000 0.89110  0.90683  0.84375  Biso   1.000  He
  Ne94     1.0000 0.85900  0.91068  0.84393  Biso   1.000  Ne
  Ne95     1.0000 0.63859  0.09213  0.40816  Biso   1.000  Ne
  He95     1.0000 0.61079  0.07684  0.41874  Biso   1.000  He
  He96     1.0000 0.61434  0.06688  0.44930  Biso   1.000  He
  Ne96     1.0000 0.58873  0.05053  0.46057  Biso   1.000  Ne
  Ne97     1.0000 0.00438  0.95249  0.02734  Biso   1.000  Ne
  He97     1.0000 0.01509  0.92877  0.00896  Biso   1.000  He
  He98     1.0000 0.04917  0.93234  0.00310  Biso   1.000  He
  Ne98     1.0000 0.06284  0.91111  0.98073  Biso   1.000  Ne
  Ne99     1.0000 0.57592  0.14297  0.62238  Biso   1.000  Ne
  He99     1.0000 0.57742  0.16882  0.64448  Biso   1.000  He
  He100    1.0000 0.58814  0.19768  0.63135  Biso   1.000  He
  Ne100    1.0000 0.59318  0.22023  0.65407  Biso   1.000  Ne
  Ne101    1.0000 0.09383  0.53164  0.43171  Biso   1.000  Ne
  He101    1.0000 0.07673  0.50377  0.43903  Biso   1.000  He
  He102    1.0000 0.08724  0.49108  0.46612  Biso   1.000  He
  Ne102    1.0000 0.06689  0.46822  0.47828  Biso   1.000  Ne
  Ne103    1.0000 0.04508  0.57413  0.49005  Biso   1.000  Ne
  He103    1.0000 0.01395  0.56735  0.49568  Biso   1.000  He
  He104    1.0000 0.99932  0.56916  0.46737  Biso   1.000  He
  Ne104    1.0000 0.96831  0.55807  0.46783  Biso   1.000  Ne
  Ne105    1.0000 0.71055  0.57035  0.18400  Biso   1.000  Ne
  He105    1.0000 0.69718  0.56329  0.15365  Biso   1.000  He
  He106    1.0000 0.71882  0.56428  0.12724  Biso   1.000  He
  Ne106    1.0000 0.70785  0.55467  0.09791  Biso   1.000  Ne
  Ne107    1.0000 0.95515  0.24710  0.74298  Biso   1.000  Ne
  He107    1.0000 0.95491  0.26329  0.77411  Biso   1.000  He
  He108    1.0000 0.97465  0.28957  0.77960  Biso   1.000  He
  Ne108    1.0000 0.96020  0.32055  0.78107  Biso   1.000  Ne
  Ne109    1.0000 0.31576  0.61327  0.19477  Biso   1.000  Ne
  He109    1.0000 0.32056  0.61663  0.16306  Biso   1.000  He
  He110    1.0000 0.33025  0.59028  0.14909  Biso   1.000  He
  Ne110    1.0000 0.33108  0.59558  0.11578  Biso   1.000  Ne
  Ne111    1.0000 0.96095  0.87211  0.21954  Biso   1.000  Ne
  He111    1.0000 0.92695  0.87412  0.21100  Biso   1.000  He
  He112    1.0000 0.90932  0.86970  0.23894  Biso   1.000  He
  Ne112    1.0000 0.88011  0.88556  0.24164  Biso   1.000  Ne
  Ne113    1.0000 0.44327  0.31525  0.94920  Biso   1.000  Ne
  He113    1.0000 0.43710  0.34766  0.95617  Biso   1.000  He
  He114    1.0000 0.41488  0.36103  0.93846  Biso   1.000  He
  Ne114    1.0000 0.40615  0.39230  0.94583  Biso   1.000  Ne
  Ne115    1.0000 0.43143  0.46881  0.99455  Biso   1.000  Ne
  He115    1.0000 0.46155  0.45670  0.00350  Biso   1.000  He
  He116    1.0000 0.46230  0.42759  0.01899  Biso   1.000  He
  Ne116    1.0000 0.49177  0.42246  0.03222  Biso   1.000  Ne
  Ne117    1.0000 0.63391  0.02420  0.26151  Biso   1.000  Ne
  He117    1.0000 0.63863  0.04746  0.28268  Biso   1.000  He
  He118    1.0000 0.61361  0.04915  0.30730  Biso   1.000  He
  Ne118    1.0000 0.61974  0.07167  0.33209  Biso   1.000  Ne
  Ne119    1.0000 0.86101  0.89252  0.95050  Biso   1.000  Ne
  He119    1.0000 0.89287  0.90169  0.95273  Biso   1.000  He
  He120    1.0000 0.90195  0.92851  0.93421  Biso   1.000  He
  Ne120    1.0000 0.93327  0.93636  0.93698  Biso   1.000  Ne
  Ne121    1.0000 0.30268  0.38461  0.95517  Biso   1.000  Ne
  He121    1.0000 0.32724  0.40188  0.94759  Biso   1.000  He
  He122    1.0000 0.32304  0.41206  0.91674  Biso   1.000  He
  Ne122    1.0000 0.35057  0.42565  0.90235  Biso   1.000  Ne
  Ne123    1.0000 0.46761  0.50634  0.10383  Biso   1.000  Ne
  He123    1.0000 0.48213  0.47689  0.10736  Biso   1.000  He
  He124    1.0000 0.46024  0.45550  0.11529  Biso   1.000  He
  Ne124    1.0000 0.47414  0.42600  0.12118  Biso   1.000  Ne
  Ne125    1.0000 0.37596  0.59786  0.91916  Biso   1.000  Ne
  He125    1.0000 0.34313  0.59180  0.91919  Biso   1.000  He
  He126    1.0000 0.32922  0.59976  0.94785  Biso   1.000  He
  Ne126    1.0000 0.30098  0.58930  0.95754  Biso   1.000  Ne
  Ne127    1.0000 0.10550  0.41594  0.64979  Biso   1.000  Ne
  He127    1.0000 0.09929  0.38259  0.65041  Biso   1.000  He
  He128    1.0000 0.11731  0.36458  0.62725  Biso   1.000  He
  Ne128    1.0000 0.10402  0.35859  0.59684  Biso   1.000  Ne
  Ne129    1.0000 0.60038  0.39555  0.82889  Biso   1.000  Ne
  He129    1.0000 0.60311  0.36123  0.83357  Biso   1.000  He
  He130    1.0000 0.58107  0.34694  0.85384  Biso   1.000  He
  Ne130    1.0000 0.57959  0.31316  0.85791  Biso   1.000  Ne
  Ne131    1.0000 0.58072  0.03694  0.63872  Biso   1.000  Ne
  He131    1.0000 0.56848  0.05915  0.66054  Biso   1.000  He
  He132    1.0000 0.59037  0.08056  0.66986  Biso   1.000  He
  Ne132    1.0000 0.58044  0.10049  0.69518  Biso   1.000  Ne
  Ne133    1.0000 0.60578  0.42005  0.25878  Biso   1.000  Ne
  He133    1.0000 0.60917  0.41241  0.22762  Biso   1.000  He
  He134    1.0000 0.64211  0.41348  0.21479  Biso   1.000  He
  Ne134    1.0000 0.64702  0.41064  0.17975  Biso   1.000  Ne
  Ne135    1.0000 0.39642  0.04923  0.62852  Biso   1.000  Ne
  He135    1.0000 0.41394  0.07164  0.63988  Biso   1.000  He
  He136    1.0000 0.41382  0.07497  0.67324  Biso   1.000  He
  Ne136    1.0000 0.42500  0.10631  0.68213  Biso   1.000  Ne
  Ne137    1.0000 0.02217  0.68141  0.97257  Biso   1.000  Ne
  He137    1.0000 0.04697  0.70319  0.96527  Biso   1.000  He
  He138    1.0000 0.06470  0.71405  0.99054  Biso   1.000  He
  Ne138    1.0000 0.08510  0.73729  0.97992  Biso   1.000  Ne
  Ne139    1.0000 0.19071  0.55945  0.39508  Biso   1.000  Ne
  He139    1.0000 0.16434  0.56546  0.37714  Biso   1.000  He
  He140    1.0000 0.14541  0.58881  0.38938  Biso   1.000  He
  Ne140    1.0000 0.11889  0.60000  0.36892  Biso   1.000  Ne
  Ne141    1.0000 0.12794  0.91260  0.94689  Biso   1.000  Ne
  He141    1.0000 0.16025  0.90551  0.95634  Biso   1.000  He
  He142    1.0000 0.18152  0.92563  0.94098  Biso   1.000  He
  Ne142    1.0000 0.21172  0.92068  0.94810  Biso   1.000  Ne
  Ne143    1.0000 0.69112  0.08514  0.46461  Biso   1.000  Ne
  He143    1.0000 0.71668  0.10114  0.44907  Biso   1.000  He
  He144    1.0000 0.71782  0.13620  0.45442  Biso   1.000  He
  Ne144    1.0000 0.74060  0.14685  0.42826  Biso   1.000  Ne
  Ne145    1.0000 0.77478  0.15080  0.10903  Biso   1.000  Ne
  He145    1.0000 0.79918  0.16752  0.12041  Biso   1.000  He
  He146    1.0000 0.82608  0.15312  0.11371  Biso   1.000  He
  Ne146    1.0000 0.85478  0.17001  0.12204  Biso   1.000  Ne
  Ne147    1.0000 0.91655  0.36931  0.69597  Biso   1.000  Ne
  He147    1.0000 0.91771  0.37731  0.66524  Biso   1.000  He
  He148    1.0000 0.94601  0.36464  0.65407  Biso   1.000  He
  Ne148    1.0000 0.95429  0.37526  0.62272  Biso   1.000  Ne
  Ne149    1.0000 0.13400  0.14091  0.23469  Biso   1.000  Ne
  He149    1.0000 0.14127  0.11298  0.22257  Biso   1.000  He
  He150    1.0000 0.16544  0.11266  0.19929  Biso   1.000  He
  Ne150    1.0000 0.16948  0.08174  0.18777  Biso   1.000  Ne
  Ne151    1.0000 0.27027  0.03024  0.60312  Biso   1.000  Ne
  He151    1.0000 0.27302  0.04763  0.63130  Biso   1.000  He
  He152    1.0000 0.30504  0.05824  0.63619  Biso   1.000  He
  Ne152    1.0000 0.30899  0.07323  0.66271  Biso   1.000  Ne
  Ne153    1.0000 0.69116  0.14522  0.63060  Biso   1.000  Ne
  He153    1.0000 0.67466  0.12117  0.61584  Biso   1.000  He
  He154    1.0000 0.67848  0.08957  0.62831  Biso   1.000  He
  Ne154    1.0000 0.66153  0.06469  0.61240  Biso   1.000  Ne
  Ne155    1.0000 0.25186  0.41369  0.68689  Biso   1.000  Ne
  He155    1.0000 0.23835  0.41968  0.65721  Biso   1.000  He
  He156    1.0000 0.20678  0.40818  0.65593  Biso   1.000  He
  Ne156    1.0000 0.18810  0.41155  0.62824  Biso   1.000  Ne
  Ne157    1.0000 0.08164  0.06518  0.12283  Biso   1.000  Ne
  He157    1.0000 0.08044  0.03717  0.10376  Biso   1.000  He
  He158    1.0000 0.05128  0.01671  0.10983  Biso   1.000  He
  Ne158    1.0000 0.05264  0.98652  0.09942  Biso   1.000  Ne
  Ne159    1.0000 0.42171  0.32135  0.20263  Biso   1.000  Ne
  He159    1.0000 0.41982  0.32001  0.16931  Biso   1.000  He
  He160    1.0000 0.44634  0.32573  0.15345  Biso   1.000  He
  Ne160    1.0000 0.44076  0.31945  0.12133  Biso   1.000  Ne
  Ne161    1.0000 0.54267  0.48674  0.96701  Biso   1.000  Ne
  He161    1.0000 0.56506  0.46683  0.95190  Biso   1.000  He
  He162    1.0000 0.59493  0.46449  0.96850  Biso   1.000  He
  Ne162    1.0000 0.61371  0.44166  0.95637  Biso   1.000  Ne
  Ne163    1.0000 0.35128  0.88708  0.42367  Biso   1.000  Ne
  He163    1.0000 0.36715  0.90434  0.40337  Biso   1.000  He
  He164    1.0000 0.35422  0.90378  0.37276  Biso   1.000  He
  Ne164    1.0000 0.37385  0.92249  0.35290  Biso   1.000  Ne
  Ne165    1.0000 0.95730  0.58279  0.22762  Biso   1.000  Ne
  He165    1.0000 0.95310  0.59428  0.26166  Biso   1.000  He
  He166    1.0000 0.94452  0.57253  0.28321  Biso   1.000  He
  Ne166    1.0000 0.93930  0.58579  0.31281  Biso   1.000  Ne
  Ne167    1.0000 0.44666  0.65704  0.93029  Biso   1.000  Ne
  He167    1.0000 0.43313  0.63183  0.94598  Biso   1.000  He
  He168    1.0000 0.45073  0.60454  0.95391  Biso   1.000  He
  Ne168    1.0000 0.43596  0.58151  0.96786  Biso   1.000  Ne
  Ne169    1.0000 0.92370  0.04949  0.12904  Biso   1.000  Ne
  He169    1.0000 0.92369  0.04559  0.09628  Biso   1.000  He
  He170    1.0000 0.93134  0.01416  0.08874  Biso   1.000  He
  Ne170    1.0000 0.92888  0.00568  0.05483  Biso   1.000  Ne
  Ne171    1.0000 0.75300  0.59458  0.28032  Biso   1.000  Ne
  He171    1.0000 0.74302  0.56908  0.29501  Biso   1.000  He
  He172    1.0000 0.75682  0.56077  0.32479  Biso   1.000  He
  Ne172    1.0000 0.75029  0.53112  0.33507  Biso   1.000  Ne
  Ne173    1.0000 0.93278  0.10145  0.93303  Biso   1.000  Ne
  He173    1.0000 0.92749  0.07313  0.94943  Biso   1.000  He
  He174    1.0000 0.95195  0.05581  0.96278  Biso   1.000  He
  Ne174    1.0000 0.94086  0.02870  0.97539  Biso   1.000  Ne
  Ne175    1.0000 0.51054  0.56865  0.00891  Biso   1.000  Ne
  He175    1.0000 0.50552  0.54089  0.02362  Biso   1.000  He
  He176    1.0000 0.53308  0.52470  0.03658  Biso   1.000  He
  Ne176    1.0000 0.52973  0.49491  0.04682  Biso   1.000  Ne
  Ne177    1.0000 0.57650  0.44646  0.11554  Biso   1.000  Ne
  He177    1.0000 0.57150  0.42993  0.08945  Biso   1.000  He
  He178    1.0000 0.59473  0.42952  0.06718  Biso   1.000  He
  Ne178    1.0000 0.58625  0.41154  0.04120  Biso   1.000  Ne
  Ne179    1.0000 0.82703  0.65697  0.45627  Biso   1.000  Ne
  He179    1.0000 0.83064  0.68974  0.45192  Biso   1.000  He
  He180    1.0000 0.86044  0.69557  0.43809  Biso   1.000  He
  Ne180    1.0000 0.88385  0.70908  0.45887  Biso   1.000  Ne
  Ne181    1.0000 0.61476  0.60496  0.23826  Biso   1.000  Ne
  He181    1.0000 0.60145  0.60333  0.20546  Biso   1.000  He
  He182    1.0000 0.59929  0.57319  0.19238  Biso   1.000  He
  Ne182    1.0000 0.58675  0.57390  0.16218  Biso   1.000  Ne
  Ne183    1.0000 0.44775  0.17349  0.36265  Biso   1.000  Ne
  He183    1.0000 0.43621  0.15801  0.38738  Biso   1.000  He
  He184    1.0000 0.44236  0.17602  0.41515  Biso   1.000  He
  Ne184    1.0000 0.42844  0.16602  0.44311  Biso   1.000  Ne
  Ne185    1.0000 0.84083  0.46237  0.22216  Biso   1.000  Ne
  He185    1.0000 0.82111  0.43695  0.23142  Biso   1.000  He
  He186    1.0000 0.80074  0.43402  0.20900  Biso   1.000  He
  Ne186    1.0000 0.77955  0.40674  0.20770  Biso   1.000  Ne
  Ne187    1.0000 0.98111  0.59246  0.59386  Biso   1.000  Ne
  He187    1.0000 0.97167  0.56158  0.58566  Biso   1.000  He
  He188    1.0000 0.94837  0.56134  0.56027  Biso   1.000  He
  Ne188    1.0000 0.93767  0.53127  0.55219  Biso   1.000  Ne
  Ne189    1.0000 0.62540  0.63108  0.95550  Biso   1.000  Ne
  He189    1.0000 0.59608  0.61656  0.94387  Biso   1.000  He
  He190    1.0000 0.58027  0.59804  0.96722  Biso   1.000  He
  Ne190    1.0000 0.58737  0.56663  0.96891  Biso   1.000  Ne
  Ne191    1.0000 0.93725  0.60106  0.67997  Biso   1.000  Ne
  He191    1.0000 0.92813  0.61828  0.65329  Biso   1.000  He
  He192    1.0000 0.94204  0.64756  0.64899  Biso   1.000  He
  Ne192    1.0000 0.93173  0.66269  0.62206  Biso   1.000  Ne
  Ne193    1.0000 0.90567  0.30307  0.45906  Biso   1.000  Ne
  He193    1.0000 0.92246  0.29305  0.43259  Biso   1.000  He
  He194    1.0000 0.92471  0.31432  0.40851  Biso   1.000  He
  Ne194    1.0000 0.94016  0.30253  0.38088  Biso   1.000  Ne
  Ne195    1.0000 0.42272  0.29335  0.77173  Biso   1.000  Ne
  He195    1.0000 0.40896  0.27481  0.79465  Biso   1.000  He
  He196    1.0000 0.40481  0.24351  0.78658  Biso   1.000  He
  Ne196    1.0000 0.38984  0.22272  0.80791  Biso   1.000  Ne
  Ne197    1.0000 0.93938  0.82689  0.09580  Biso   1.000  Ne
  He197    1.0000 0.91079  0.81075  0.10278  Biso   1.000  He
  He198    1.0000 0.90321  0.80190  0.13468  Biso   1.000  He
  Ne198    1.0000 0.87530  0.78710  0.14003  Biso   1.000  Ne
  Ne199    1.0000 0.40986  0.92572  0.73622  Biso   1.000  Ne
  He199    1.0000 0.42599  0.89623  0.74350  Biso   1.000  He
  He200    1.0000 0.41376  0.88072  0.77033  Biso   1.000  He
  Ne200    1.0000 0.43425  0.85575  0.77972  Biso   1.000  Ne
