data_image0
_cell_length_a       47.1159
_cell_length_b       46.8017
_cell_length_c       46.5824
_cell_angle_alpha    90
_cell_angle_beta     90
_cell_angle_gamma    90

_symmetry_space_group_name_H-M    "P 1"
_symmetry_int_tables_number       1

loop_
  _symmetry_equiv_pos_as_xyz
  'x, y, z'

loop_
  _atom_site_label
  _atom_site_occupancy
  _atom_site_fract_x
  _atom_site_fract_y
  _atom_site_fract_z
  _atom_site_thermal_displace_type
  _atom_site_B_iso_or_equiv
  _atom_site_type_symbol
  Ne1      1.0000 0.84779  0.89579  0.87503  Biso   1.000  Ne
  He1      1.0000 0.87266  0.91142  0.88228  Biso   1.000  He
  He2      1.0000 0.90192  0.89942  0.86332  Biso   1.000  He
  Ne2      1.0000 0.92705  0.91827  0.86449  Biso   1.000  Ne
  Ne3      1.0000 0.77933  0.55911  0.07434  Biso   1.000  Ne
  He3      1.0000 0.76256  0.55955  0.10434  Biso   1.000  He
  He4      1.0000 0.73611  0.57769  0.10114  Biso   1.000  He
  Ne4      1.0000 0.71197  0.57245  0.12211  Biso   1.000  Ne
  Ne5      1.0000 0.64207  0.65648  0.10645  Biso   1.000  Ne
  He5      1.0000 0.62778  0.62753  0.11597  Biso   1.000  He
  He6      1.0000 0.62331  0.62445  0.14851  Biso   1.000  He
  Ne6      1.0000 0.61073  0.59303  0.15853  Biso   1.000  Ne
  Ne7      1.0000 0.08909  0.91112  0.27015  Biso   1.000  Ne
  He7      1.0000 0.09965  0.88741  0.24921  Biso   1.000  He
  He8      1.0000 0.10924  0.85960  0.26205  Biso   1.000  He
  Ne8      1.0000 0.12572  0.83721  0.24134  Biso   1.000  Ne
  Ne9      1.0000 0.67957  0.42057  0.68387  Biso   1.000  Ne
  He9      1.0000 0.71015  0.43537  0.69170  Biso   1.000  He
  He10     1.0000 0.73437  0.42155  0.67616  Biso   1.000  He
  Ne10     1.0000 0.76154  0.43371  0.68776  Biso   1.000  Ne
  Ne11     1.0000 0.63416  0.20913  0.44718  Biso   1.000  Ne
  He11     1.0000 0.63341  0.17626  0.44479  Biso   1.000  He
  He12     1.0000 0.64663  0.16201  0.41773  Biso   1.000  He
  Ne12     1.0000 0.62222  0.15111  0.39596  Biso   1.000  Ne
  Ne13     1.0000 0.78165  0.07921  0.19797  Biso   1.000  Ne
  He13     1.0000 0.80752  0.07593  0.17658  Biso   1.000  He
  He14     1.0000 0.79732  0.08227  0.14475  Biso   1.000  He
  Ne14     1.0000 0.82109  0.08133  0.12047  Biso   1.000  Ne
  Ne15     1.0000 0.81764  0.86291  0.07869  Biso   1.000  Ne
  He15     1.0000 0.79454  0.88660  0.08436  Biso   1.000  He
  He16     1.0000 0.79053  0.89691  0.11533  Biso   1.000  He
  Ne16     1.0000 0.76897  0.92214  0.12135  Biso   1.000  Ne
  Ne17     1.0000 0.03091  0.50856  0.55363  Biso   1.000  Ne
  He17     1.0000 0.01241  0.52855  0.53425  Biso   1.000  He
  He18     1.0000 0.02162  0.55953  0.53428  Biso   1.000  He
  Ne18     1.0000 0.00399  0.57345  0.50911  Biso   1.000  Ne
  Ne19     1.0000 0.77839  0.56431  0.59886  Biso   1.000  Ne
  He19     1.0000 0.80766  0.57316  0.60730  Biso   1.000  He
  He20     1.0000 0.81733  0.60079  0.59393  Biso   1.000  He
  Ne20     1.0000 0.84847  0.60672  0.60168  Biso   1.000  Ne
  Ne21     1.0000 0.93799  0.65341  0.34784  Biso   1.000  Ne
  He21     1.0000 0.93762  0.68194  0.33059  Biso   1.000  He
  He22     1.0000 0.94877  0.70634  0.34724  Biso   1.000  He
  Ne22     1.0000 0.94473  0.73399  0.32703  Biso   1.000  Ne
  Ne23     1.0000 0.36413  0.41670  0.13210  Biso   1.000  Ne
  He23     1.0000 0.33830  0.40704  0.11197  Biso   1.000  He
  He24     1.0000 0.30839  0.41773  0.11937  Biso   1.000  He
  Ne24     1.0000 0.28364  0.40660  0.09641  Biso   1.000  Ne
  Ne25     1.0000 0.92014  0.84200  0.08605  Biso   1.000  Ne
  He25     1.0000 0.91297  0.81225  0.09947  Biso   1.000  He
  He26     1.0000 0.88140  0.80670  0.10283  Biso   1.000  He
  Ne26     1.0000 0.87578  0.77585  0.11569  Biso   1.000  Ne
  Ne27     1.0000 0.26621  0.36932  0.19240  Biso   1.000  Ne
  He27     1.0000 0.29755  0.36367  0.18726  Biso   1.000  He
  He28     1.0000 0.31698  0.36241  0.21369  Biso   1.000  He
  Ne28     1.0000 0.35052  0.35509  0.20800  Biso   1.000  Ne
  Ne29     1.0000 0.66116  0.14383  0.32680  Biso   1.000  Ne
  He29     1.0000 0.64668  0.17383  0.32308  Biso   1.000  He
  He30     1.0000 0.64643  0.18593  0.29136  Biso   1.000  He
  Ne30     1.0000 0.62940  0.21631  0.28748  Biso   1.000  Ne
  Ne31     1.0000 0.42410  0.16527  0.05994  Biso   1.000  Ne
  He31     1.0000 0.42254  0.19246  0.08105  Biso   1.000  He
  He32     1.0000 0.41165  0.21869  0.06673  Biso   1.000  He
  Ne32     1.0000 0.41581  0.24765  0.08387  Biso   1.000  Ne
  Ne33     1.0000 0.58437  0.26583  0.76621  Biso   1.000  Ne
  He33     1.0000 0.58547  0.23401  0.76311  Biso   1.000  He
  He34     1.0000 0.58360  0.22129  0.73119  Biso   1.000  He
  Ne34     1.0000 0.57731  0.18834  0.72731  Biso   1.000  Ne
  Ne35     1.0000 0.10492  0.15721  0.85673  Biso   1.000  Ne
  He35     1.0000 0.11265  0.15883  0.88958  Biso   1.000  He
  He36     1.0000 0.11329  0.18988  0.89990  Biso   1.000  He
  Ne36     1.0000 0.12304  0.19355  0.93100  Biso   1.000  Ne
  Ne37     1.0000 0.92904  0.16021  0.92202  Biso   1.000  Ne
  He37     1.0000 0.90325  0.14107  0.92138  Biso   1.000  He
  He38     1.0000 0.91296  0.10847  0.92633  Biso   1.000  He
  Ne38     1.0000 0.88866  0.08728  0.91592  Biso   1.000  Ne
  Ne39     1.0000 0.45239  0.47483  0.07701  Biso   1.000  Ne
  He39     1.0000 0.45819  0.50808  0.07640  Biso   1.000  He
  He40     1.0000 0.45098  0.52398  0.04843  Biso   1.000  He
  Ne40     1.0000 0.45308  0.55882  0.05158  Biso   1.000  Ne
  Ne41     1.0000 0.85334  0.57251  0.40461  Biso   1.000  Ne
  He41     1.0000 0.81947  0.57317  0.40220  Biso   1.000  He
  He42     1.0000 0.80687  0.58699  0.42880  Biso   1.000  He
  Ne42     1.0000 0.77125  0.58719  0.42821  Biso   1.000  Ne
  Ne43     1.0000 0.59001  0.40825  0.87406  Biso   1.000  Ne
  He43     1.0000 0.62202  0.40359  0.87808  Biso   1.000  He
  He44     1.0000 0.64223  0.41453  0.85565  Biso   1.000  He
  Ne44     1.0000 0.67310  0.40934  0.86155  Biso   1.000  Ne
  Ne45     1.0000 0.19247  0.04833  0.76596  Biso   1.000  Ne
  He45     1.0000 0.18865  0.06669  0.79367  Biso   1.000  He
  He46     1.0000 0.15703  0.07327  0.80227  Biso   1.000  He
  Ne46     1.0000 0.15703  0.09477  0.82754  Biso   1.000  Ne
  Ne47     1.0000 0.83417  0.03721  0.38467  Biso   1.000  Ne
  He47     1.0000 0.80765  0.06026  0.38499  Biso   1.000  He
  He48     1.0000 0.82030  0.09248  0.37632  Biso   1.000  He
  Ne48     1.0000 0.79382  0.11415  0.37425  Biso   1.000  Ne
  Ne49     1.0000 0.69819  0.89401  0.43040  Biso   1.000  Ne
  He49     1.0000 0.70448  0.86108  0.43111  Biso   1.000  He
  He50     1.0000 0.68455  0.84222  0.44694  Biso   1.000  He
  Ne50     1.0000 0.68989  0.81158  0.44472  Biso   1.000  Ne
  Ne51     1.0000 0.87545  0.74684  0.93280  Biso   1.000  Ne
  He51     1.0000 0.88890  0.77682  0.92530  Biso   1.000  He
  He52     1.0000 0.91813  0.77946  0.93734  Biso   1.000  He
  Ne52     1.0000 0.92819  0.81085  0.92899  Biso   1.000  Ne
  Ne53     1.0000 0.23548  0.41133  0.94072  Biso   1.000  Ne
  He53     1.0000 0.23215  0.41382  0.97408  Biso   1.000  He
  He54     1.0000 0.22762  0.44345  0.98765  Biso   1.000  He
  Ne54     1.0000 0.22001  0.44273  0.01966  Biso   1.000  Ne
  Ne55     1.0000 0.16983  0.62287  0.59726  Biso   1.000  Ne
  He55     1.0000 0.14510  0.63848  0.61760  Biso   1.000  He
  He56     1.0000 0.12671  0.66115  0.60191  Biso   1.000  He
  Ne56     1.0000 0.10465  0.67471  0.62313  Biso   1.000  Ne
  Ne57     1.0000 0.94381  0.91713  0.14137  Biso   1.000  Ne
  He57     1.0000 0.92809  0.89435  0.15816  Biso   1.000  He
  He58     1.0000 0.92671  0.89626  0.19204  Biso   1.000  He
  Ne58     1.0000 0.91059  0.87079  0.20588  Biso   1.000  Ne
  Ne59     1.0000 0.79779  0.38162  0.63481  Biso   1.000  Ne
  He59     1.0000 0.82971  0.38354  0.62816  Biso   1.000  He
  He60     1.0000 0.83725  0.39944  0.59989  Biso   1.000  He
  Ne60     1.0000 0.86920  0.40305  0.59432  Biso   1.000  Ne
  Ne61     1.0000 0.46514  0.23822  0.18857  Biso   1.000  Ne
  He61     1.0000 0.44872  0.22363  0.21235  Biso   1.000  He
  He62     1.0000 0.44389  0.23953  0.23959  Biso   1.000  He
  Ne62     1.0000 0.42818  0.21786  0.26418  Biso   1.000  Ne
  Ne63     1.0000 0.83799  0.42334  0.37976  Biso   1.000  Ne
  He63     1.0000 0.81961  0.40073  0.39160  Biso   1.000  He
  He64     1.0000 0.83168  0.38456  0.41917  Biso   1.000  He
  Ne64     1.0000 0.81264  0.35947  0.43053  Biso   1.000  Ne
  Ne65     1.0000 0.10943  0.68078  0.42882  Biso   1.000  Ne
  He65     1.0000 0.14037  0.67524  0.41403  Biso   1.000  He
  He66     1.0000 0.16650  0.68886  0.42994  Biso   1.000  He
  Ne66     1.0000 0.19175  0.69050  0.41388  Biso   1.000  Ne
  Ne67     1.0000 0.09088  0.15166  0.17209  Biso   1.000  Ne
  He67     1.0000 0.09733  0.11818  0.17150  Biso   1.000  He
  He68     1.0000 0.11198  0.10385  0.20071  Biso   1.000  He
  Ne68     1.0000 0.09307  0.08804  0.22045  Biso   1.000  Ne
  Ne69     1.0000 0.96693  0.54587  0.60903  Biso   1.000  Ne
  He69     1.0000 0.94841  0.57256  0.61017  Biso   1.000  He
  He70     1.0000 0.95905  0.60014  0.59405  Biso   1.000  He
  Ne70     1.0000 0.93828  0.62590  0.59512  Biso   1.000  Ne
  Ne71     1.0000 0.31255  0.88452  0.72733  Biso   1.000  Ne
  He71     1.0000 0.32641  0.90636  0.70643  Biso   1.000  He
  He72     1.0000 0.34793  0.89287  0.68300  Biso   1.000  He
  Ne72     1.0000 0.36732  0.91550  0.66267  Biso   1.000  Ne
  Ne73     1.0000 0.22200  0.87331  0.24324  Biso   1.000  Ne
  He73     1.0000 0.21410  0.87434  0.21168  Biso   1.000  He
  He74     1.0000 0.21661  0.90626  0.19882  Biso   1.000  He
  Ne74     1.0000 0.20489  0.90789  0.16972  Biso   1.000  Ne
  Ne75     1.0000 0.58492  0.85324  0.68702  Biso   1.000  Ne
  He75     1.0000 0.60126  0.82924  0.67175  Biso   1.000  He
  He76     1.0000 0.58955  0.82383  0.64047  Biso   1.000  He
  Ne76     1.0000 0.60847  0.80107  0.62525  Biso   1.000  Ne
  Ne77     1.0000 0.69852  0.92185  0.24266  Biso   1.000  Ne
  He77     1.0000 0.69798  0.91198  0.27589  Biso   1.000  He
  He78     1.0000 0.72694  0.89768  0.28581  Biso   1.000  He
  Ne78     1.0000 0.72446  0.88777  0.31878  Biso   1.000  Ne
  Ne79     1.0000 0.43387  0.96686  0.60995  Biso   1.000  Ne
  He79     1.0000 0.46451  0.95767  0.60592  Biso   1.000  He
  He80     1.0000 0.46746  0.93798  0.58271  Biso   1.000  He
  Ne80     1.0000 0.49778  0.92914  0.57988  Biso   1.000  Ne
  Ne81     1.0000 0.72971  0.18717  0.11302  Biso   1.000  Ne
  He81     1.0000 0.75458  0.20580  0.12183  Biso   1.000  He
  He82     1.0000 0.78259  0.19652  0.11127  Biso   1.000  He
  Ne82     1.0000 0.80940  0.21685  0.11750  Biso   1.000  Ne
  Ne83     1.0000 0.53756  0.91973  0.45587  Biso   1.000  Ne
  He83     1.0000 0.56612  0.90520  0.46837  Biso   1.000  He
  He84     1.0000 0.58675  0.89881  0.44614  Biso   1.000  He
  Ne84     1.0000 0.61207  0.88389  0.45722  Biso   1.000  Ne
  Ne85     1.0000 0.10121  0.55212  0.59299  Biso   1.000  Ne
  He85     1.0000 0.09870  0.54551  0.62403  Biso   1.000  He
  He86     1.0000 0.08794  0.56902  0.64309  Biso   1.000  He
  Ne86     1.0000 0.08898  0.55984  0.67370  Biso   1.000  Ne
  Ne87     1.0000 0.13999  0.64412  0.33612  Biso   1.000  Ne
  He87     1.0000 0.13515  0.61756  0.35391  Biso   1.000  He
  He88     1.0000 0.10541  0.61147  0.36265  Biso   1.000  He
  Ne88     1.0000 0.09856  0.58241  0.37498  Biso   1.000  Ne
  Ne89     1.0000 0.69210  0.58185  0.25366  Biso   1.000  Ne
  He89     1.0000 0.66634  0.57977  0.27145  Biso   1.000  He
  He90     1.0000 0.64041  0.58535  0.25087  Biso   1.000  He
  Ne90     1.0000 0.61083  0.58554  0.26769  Biso   1.000  Ne
  Ne91     1.0000 0.93698  0.18760  0.12202  Biso   1.000  Ne
  He91     1.0000 0.92343  0.16234  0.10789  Biso   1.000  He
  He92     1.0000 0.89634  0.14985  0.11913  Biso   1.000  He
  Ne92     1.0000 0.86779  0.15659  0.10194  Biso   1.000  Ne
  Ne93     1.0000 0.90012  0.72062  0.61849  Biso   1.000  Ne
  He93     1.0000 0.92012  0.69996  0.63331  Biso   1.000  He
  He94     1.0000 0.90716  0.68473  0.65995  Biso   1.000  He
  Ne94     1.0000 0.92491  0.66655  0.67579  Biso   1.000  Ne
  Ne95     1.0000 0.62428  0.09939  0.46707  Biso   1.000  Ne
  He95     1.0000 0.62030  0.07397  0.44772  Biso   1.000  He
  He96     1.0000 0.58760  0.06659  0.43985  Biso   1.000  He
  Ne96     1.0000 0.58247  0.04041  0.42235  Biso   1.000  Ne
  Ne97     1.0000 0.13960  0.92843  0.92423  Biso   1.000  Ne
  He97     1.0000 0.11535  0.91307  0.94171  Biso   1.000  He
  He98     1.0000 0.08825  0.93174  0.94815  Biso   1.000  He
  Ne98     1.0000 0.06369  0.91361  0.95621  Biso   1.000  Ne
  Ne99     1.0000 0.38399  0.14741  0.42969  Biso   1.000  Ne
  He99     1.0000 0.37591  0.11684  0.41844  Biso   1.000  He
  He100    1.0000 0.39566  0.09508  0.44048  Biso   1.000  He
  Ne100    1.0000 0.38500  0.06436  0.44292  Biso   1.000  Ne
  Ne101    1.0000 0.70945  0.06846  0.60126  Biso   1.000  Ne
  He101    1.0000 0.68314  0.06615  0.61892  Biso   1.000  He
  He102    1.0000 0.68338  0.08496  0.64614  Biso   1.000  He
  Ne102    1.0000 0.66113  0.07382  0.66930  Biso   1.000  Ne
  Ne103    1.0000 0.31572  0.08039  0.68306  Biso   1.000  Ne
  He103    1.0000 0.33770  0.07894  0.65882  Biso   1.000  He
  He104    1.0000 0.32532  0.08686  0.62769  Biso   1.000  He
  Ne104    1.0000 0.34817  0.09301  0.60474  Biso   1.000  Ne
  Ne105    1.0000 0.16440  0.17187  0.11243  Biso   1.000  Ne
  He105    1.0000 0.18010  0.14560  0.12518  Biso   1.000  He
  He106    1.0000 0.16115  0.12143  0.12422  Biso   1.000  He
  Ne106    1.0000 0.17390  0.09207  0.13304  Biso   1.000  Ne
  Ne107    1.0000 0.14556  0.07436  0.95307  Biso   1.000  Ne
  He107    1.0000 0.11869  0.05898  0.95949  Biso   1.000  He
  He108    1.0000 0.09683  0.05849  0.93446  Biso   1.000  He
  Ne108    1.0000 0.07154  0.03908  0.94017  Biso   1.000  Ne
  Ne109    1.0000 0.09895  0.34002  0.43787  Biso   1.000  Ne
  He109    1.0000 0.12519  0.33343  0.42164  Biso   1.000  He
  He110    1.0000 0.15265  0.32762  0.43781  Biso   1.000  He
  Ne110    1.0000 0.18157  0.32344  0.42194  Biso   1.000  Ne
  Ne111    1.0000 0.59261  0.75057  0.46042  Biso   1.000  Ne
  He111    1.0000 0.59975  0.77901  0.44491  Biso   1.000  He
  He112    1.0000 0.61103  0.77752  0.41556  Biso   1.000  He
  Ne112    1.0000 0.62154  0.80637  0.40575  Biso   1.000  Ne
  Ne113    1.0000 0.46033  0.06637  0.38927  Biso   1.000  Ne
  He113    1.0000 0.43575  0.06281  0.36833  Biso   1.000  He
  He114    1.0000 0.44420  0.06020  0.33679  Biso   1.000  He
  Ne114    1.0000 0.42096  0.06266  0.31640  Biso   1.000  Ne
  Ne115    1.0000 0.35590  0.66607  0.11791  Biso   1.000  Ne
  He115    1.0000 0.36915  0.64053  0.10248  Biso   1.000  He
  He116    1.0000 0.39779  0.62979  0.11387  Biso   1.000  He
  Ne116    1.0000 0.41564  0.60846  0.09525  Biso   1.000  Ne
  Ne117    1.0000 0.31604  0.56920  0.84433  Biso   1.000  Ne
  He117    1.0000 0.34598  0.56905  0.82951  Biso   1.000  He
  He118    1.0000 0.34716  0.56630  0.79751  Biso   1.000  He
  Ne118    1.0000 0.36670  0.58698  0.78161  Biso   1.000  Ne
  Ne119    1.0000 0.06418  0.45007  0.60550  Biso   1.000  Ne
  He119    1.0000 0.07416  0.42894  0.58388  Biso   1.000  He
  He120    1.0000 0.06162  0.39991  0.58368  Biso   1.000  He
  Ne120    1.0000 0.07855  0.37878  0.60245  Biso   1.000  Ne
  Ne121    1.0000 0.20621  0.13111  0.91063  Biso   1.000  Ne
  He121    1.0000 0.23158  0.14200  0.92754  Biso   1.000  He
  He122    1.0000 0.25687  0.12328  0.93224  Biso   1.000  He
  Ne122    1.0000 0.27792  0.13739  0.95482  Biso   1.000  Ne
  Ne123    1.0000 0.47417  0.54047  0.92235  Biso   1.000  Ne
  He123    1.0000 0.44783  0.55055  0.94056  Biso   1.000  He
  He124    1.0000 0.45045  0.57722  0.96130  Biso   1.000  He
  Ne124    1.0000 0.43431  0.60449  0.94691  Biso   1.000  Ne
  Ne125    1.0000 0.41106  0.31140  0.93995  Biso   1.000  Ne
  He125    1.0000 0.40830  0.29891  0.91149  Biso   1.000  He
  He126    1.0000 0.41533  0.31893  0.88722  Biso   1.000  He
  Ne126    1.0000 0.41786  0.30322  0.85741  Biso   1.000  Ne
  Ne127    1.0000 0.58329  0.15007  0.64302  Biso   1.000  Ne
  He127    1.0000 0.61533  0.14997  0.65506  Biso   1.000  He
  He128    1.0000 0.63804  0.15989  0.63618  Biso   1.000  He
  Ne128    1.0000 0.66974  0.16103  0.64906  Biso   1.000  Ne
  Ne129    1.0000 0.22108  0.59965  0.34666  Biso   1.000  Ne
  He129    1.0000 0.21303  0.60098  0.37893  Biso   1.000  He
  He130    1.0000 0.19315  0.57616  0.39024  Biso   1.000  He
  Ne130    1.0000 0.18635  0.57844  0.42286  Biso   1.000  Ne
  Ne131    1.0000 0.12093  0.40220  0.27012  Biso   1.000  Ne
  He131    1.0000 0.15298  0.40414  0.28132  Biso   1.000  He
  He132    1.0000 0.15922  0.42563  0.30574  Biso   1.000  He
  Ne132    1.0000 0.18782  0.42311  0.32457  Biso   1.000  Ne
  Ne133    1.0000 0.90934  0.92694  0.05984  Biso   1.000  Ne
  He133    1.0000 0.93726  0.92115  0.04365  Biso   1.000  He
  He134    1.0000 0.96335  0.92817  0.06113  Biso   1.000  He
  Ne134    1.0000 0.99134  0.91552  0.04914  Biso   1.000  Ne
  Ne135    1.0000 0.87252  0.33916  0.96896  Biso   1.000  Ne
  He135    1.0000 0.87028  0.35184  0.99810  Biso   1.000  He
  He136    1.0000 0.90052  0.35049  0.01663  Biso   1.000  He
  Ne136    1.0000 0.89618  0.36457  0.04538  Biso   1.000  Ne
  Ne137    1.0000 0.20525  0.78487  0.10973  Biso   1.000  Ne
  He137    1.0000 0.22256  0.81000  0.10413  Biso   1.000  He
  He138    1.0000 0.20368  0.83781  0.10216  Biso   1.000  He
  Ne138    1.0000 0.21897  0.86748  0.09475  Biso   1.000  Ne
  Ne139    1.0000 0.96139  0.75495  0.44089  Biso   1.000  Ne
  He139    1.0000 0.93434  0.74102  0.45100  Biso   1.000  He
  He140    1.0000 0.92534  0.71370  0.43244  Biso   1.000  He
  Ne140    1.0000 0.93606  0.68317  0.44393  Biso   1.000  Ne
  Ne141    1.0000 0.48441  0.39923  0.05541  Biso   1.000  Ne
  He141    1.0000 0.51588  0.40904  0.06387  Biso   1.000  He
  He142    1.0000 0.53891  0.38932  0.04978  Biso   1.000  He
  Ne142    1.0000 0.56946  0.39989  0.05794  Biso   1.000  Ne
  Ne143    1.0000 0.93061  0.50778  0.51297  Biso   1.000  Ne
  He143    1.0000 0.92936  0.53876  0.50111  Biso   1.000  He
  He144    1.0000 0.93349  0.53991  0.46653  Biso   1.000  He
  Ne144    1.0000 0.93360  0.57158  0.45252  Biso   1.000  Ne
  Ne145    1.0000 0.80311  0.45349  0.01744  Biso   1.000  Ne
  He145    1.0000 0.81134  0.43393  0.04348  Biso   1.000  He
  He146    1.0000 0.79372  0.43372  0.07381  Biso   1.000  He
  Ne146    1.0000 0.81189  0.41307  0.09672  Biso   1.000  Ne
  Ne147    1.0000 0.71404  0.41854  0.17246  Biso   1.000  Ne
  He147    1.0000 0.72465  0.40758  0.14337  Biso   1.000  He
  He148    1.0000 0.70045  0.40779  0.11917  Biso   1.000  He
  Ne148    1.0000 0.68647  0.37946  0.11375  Biso   1.000  Ne
  Ne149    1.0000 0.92872  0.41969  0.54067  Biso   1.000  Ne
  He149    1.0000 0.95683  0.42132  0.56106  Biso   1.000  He
  He150    1.0000 0.96559  0.45211  0.57258  Biso   1.000  He
  Ne150    1.0000 0.99140  0.45210  0.59293  Biso   1.000  Ne
  Ne151    1.0000 0.02781  0.08032  0.07496  Biso   1.000  Ne
  He151    1.0000 0.05655  0.08491  0.08868  Biso   1.000  He
  He152    1.0000 0.07920  0.07147  0.07181  Biso   1.000  He
  Ne152    1.0000 0.10911  0.07209  0.08028  Biso   1.000  Ne
  Ne153    1.0000 0.07114  0.41747  0.49053  Biso   1.000  Ne
  He153    1.0000 0.08219  0.42723  0.46108  Biso   1.000  He
  He154    1.0000 0.07232  0.40929  0.43539  Biso   1.000  He
  Ne154    1.0000 0.08294  0.42018  0.40609  Biso   1.000  Ne
  Ne155    1.0000 0.25611  0.22788  0.24923  Biso   1.000  Ne
  He155    1.0000 0.27054  0.23840  0.21971  Biso   1.000  He
  He156    1.0000 0.28986  0.21734  0.20097  Biso   1.000  He
  Ne156    1.0000 0.29899  0.22903  0.17161  Biso   1.000  Ne
  Ne157    1.0000 0.95833  0.05644  0.03129  Biso   1.000  Ne
  He157    1.0000 0.98078  0.05507  0.00988  Biso   1.000  He
  He158    1.0000 0.98246  0.07974  0.98752  Biso   1.000  He
  Ne158    1.0000 0.00561  0.07886  0.96580  Biso   1.000  Ne
  Ne159    1.0000 0.60053  0.06593  0.33186  Biso   1.000  Ne
  He159    1.0000 0.61740  0.07489  0.35808  Biso   1.000  He
  He160    1.0000 0.64718  0.06124  0.36002  Biso   1.000  He
  Ne160    1.0000 0.66704  0.07449  0.38165  Biso   1.000  Ne
  Ne161    1.0000 0.91104  0.06254  0.12883  Biso   1.000  Ne
  He161    1.0000 0.89648  0.06894  0.15698  Biso   1.000  He
  He162    1.0000 0.91645  0.08084  0.18094  Biso   1.000  He
  Ne162    1.0000 0.90211  0.08799  0.20941  Biso   1.000  Ne
  Ne163    1.0000 0.85836  0.08079  0.82683  Biso   1.000  Ne
  He163    1.0000 0.88968  0.08752  0.83088  Biso   1.000  He
  He164    1.0000 0.91156  0.07132  0.81301  Biso   1.000  He
  Ne164    1.0000 0.94157  0.08101  0.81780  Biso   1.000  Ne
  Ne165    1.0000 0.60631  0.31809  0.10710  Biso   1.000  Ne
  He165    1.0000 0.63517  0.30950  0.09424  Biso   1.000  He
  He166    1.0000 0.64837  0.28140  0.10467  Biso   1.000  He
  Ne166    1.0000 0.68144  0.27757  0.10037  Biso   1.000  Ne
  Ne167    1.0000 0.60632  0.40470  0.16702  Biso   1.000  Ne
  He167    1.0000 0.62628  0.38573  0.18615  Biso   1.000  He
  He168    1.0000 0.61001  0.35778  0.19649  Biso   1.000  He
  Ne168    1.0000 0.62746  0.33451  0.21107  Biso   1.000  Ne
  Ne169    1.0000 0.56828  0.54169  0.95496  Biso   1.000  Ne
  He169    1.0000 0.57907  0.56514  0.93427  Biso   1.000  He
  He170    1.0000 0.58108  0.55576  0.90334  Biso   1.000  He
  Ne170    1.0000 0.58948  0.57775  0.88199  Biso   1.000  Ne
  Ne171    1.0000 0.04472  0.01167  0.02270  Biso   1.000  Ne
  He171    1.0000 0.04077  0.99916  0.05298  Biso   1.000  He
  He172    1.0000 0.01399  0.00702  0.06193  Biso   1.000  He
  Ne172    1.0000 0.00836  0.99529  0.09389  Biso   1.000  Ne
  Ne173    1.0000 0.10073  0.60144  0.45511  Biso   1.000  Ne
  He173    1.0000 0.09982  0.56863  0.45512  Biso   1.000  He
  He174    1.0000 0.07210  0.55296  0.46288  Biso   1.000  He
  Ne174    1.0000 0.05471  0.53812  0.43616  Biso   1.000  Ne
  Ne175    1.0000 0.26360  0.34110  0.40785  Biso   1.000  Ne
  He175    1.0000 0.24917  0.36838  0.39324  Biso   1.000  He
  He176    1.0000 0.23396  0.38997  0.41352  Biso   1.000  He
  Ne176    1.0000 0.22137  0.41597  0.39854  Biso   1.000  Ne
  Ne177    1.0000 0.09454  0.30812  0.69330  Biso   1.000  Ne
  He177    1.0000 0.09606  0.32004  0.66018  Biso   1.000  He
  He178    1.0000 0.09116  0.29206  0.63836  Biso   1.000  He
  Ne178    1.0000 0.09628  0.30109  0.60742  Biso   1.000  Ne
  Ne179    1.0000 0.38119  0.39755  0.92158  Biso   1.000  Ne
  He179    1.0000 0.40009  0.40968  0.89934  Biso   1.000  He
  He180    1.0000 0.39873  0.39546  0.86727  Biso   1.000  He
  Ne180    1.0000 0.41610  0.41007  0.84327  Biso   1.000  Ne
  Ne181    1.0000 0.57074  0.60213  0.79009  Biso   1.000  Ne
  He181    1.0000 0.59101  0.57674  0.79960  Biso   1.000  He
  He182    1.0000 0.62221  0.58634  0.80702  Biso   1.000  He
  Ne182    1.0000 0.64655  0.56352  0.81163  Biso   1.000  Ne
  Ne183    1.0000 0.08590  0.80735  0.72456  Biso   1.000  Ne
  He183    1.0000 0.09438  0.78059  0.73950  Biso   1.000  He
  He184    1.0000 0.07972  0.75435  0.72393  Biso   1.000  He
  Ne184    1.0000 0.08707  0.72412  0.73398  Biso   1.000  Ne
  Ne185    1.0000 0.92697  0.06133  0.30453  Biso   1.000  Ne
  He185    1.0000 0.89777  0.04704  0.30403  Biso   1.000  He
  He186    1.0000 0.89907  0.01640  0.31478  Biso   1.000  He
  Ne186    1.0000 0.86856  0.00418  0.30879  Biso   1.000  Ne
  Ne187    1.0000 0.93039  0.98690  0.97569  Biso   1.000  Ne
  He187    1.0000 0.94999  0.99221  0.95156  Biso   1.000  He
  He188    1.0000 0.97771  0.97294  0.95528  Biso   1.000  He
  Ne188    1.0000 0.00205  0.98287  0.93642  Biso   1.000  Ne
  Ne189    1.0000 0.95210  0.71454  0.83982  Biso   1.000  Ne
  He189    1.0000 0.93810  0.74269  0.82882  Biso   1.000  He
  He190    1.0000 0.93738  0.76873  0.84837  Biso   1.000  He
  Ne190    1.0000 0.92450  0.79438  0.83389  Biso   1.000  Ne
  Ne191    1.0000 0.57508  0.47914  0.30734  Biso   1.000  Ne
  He191    1.0000 0.59318  0.50810  0.30779  Biso   1.000  He
  He192    1.0000 0.61730  0.50795  0.33013  Biso   1.000  He
  Ne192    1.0000 0.63198  0.53678  0.33093  Biso   1.000  Ne
  Ne193    1.0000 0.69179  0.90252  0.59680  Biso   1.000  Ne
  He193    1.0000 0.67213  0.90024  0.62237  Biso   1.000  He
  He194    1.0000 0.63948  0.90804  0.61482  Biso   1.000  He
  Ne194    1.0000 0.61832  0.91230  0.64192  Biso   1.000  Ne
  Ne195    1.0000 0.92358  0.18832  0.83914  Biso   1.000  Ne
  He195    1.0000 0.92138  0.21695  0.81928  Biso   1.000  He
  He196    1.0000 0.91102  0.20918  0.78892  Biso   1.000  He
  Ne196    1.0000 0.90705  0.23556  0.77264  Biso   1.000  Ne
  Ne197    1.0000 0.28533  0.87756  0.40413  Biso   1.000  Ne
  He197    1.0000 0.30736  0.90240  0.41389  Biso   1.000  He
  He198    1.0000 0.29177  0.93203  0.41303  Biso   1.000  He
  Ne198    1.0000 0.27326  0.94137  0.44186  Biso   1.000  Ne
  Ne199    1.0000 0.44678  0.36969  0.21601  Biso   1.000  Ne
  He199    1.0000 0.44245  0.37057  0.18508  Biso   1.000  He
  He200    1.0000 0.42041  0.35410  0.17280  Biso   1.000  He
  Ne200    1.0000 0.42058  0.35177  0.13988  Biso   1.000  Ne
  Ne201    1.0000 0.16232  0.27019  0.08709  Biso   1.000  Ne
  He201    1.0000 0.13827  0.25385  0.10239  Biso   1.000  He
  He202    1.0000 0.11601  0.23978  0.08161  Biso   1.000  He
  Ne202    1.0000 0.09658  0.21859  0.09532  Biso   1.000  Ne
  Ne203    1.0000 0.11619  0.92520  0.12264  Biso   1.000  Ne
  He203    1.0000 0.09624  0.93744  0.09972  Biso   1.000  He
  He204    1.0000 0.09190  0.91491  0.07592  Biso   1.000  He
  Ne204    1.0000 0.07247  0.92391  0.05136  Biso   1.000  Ne
  Ne205    1.0000 0.92258  0.40843  0.67336  Biso   1.000  Ne
  He205    1.0000 0.90620  0.40508  0.70131  Biso   1.000  He
  He206    1.0000 0.92473  0.40027  0.72955  Biso   1.000  He
  Ne206    1.0000 0.91092  0.40511  0.76006  Biso   1.000  Ne
  Ne207    1.0000 0.40725  0.59078  0.25370  Biso   1.000  Ne
  He207    1.0000 0.42619  0.58056  0.22997  Biso   1.000  He
  He208    1.0000 0.40891  0.56968  0.20201  Biso   1.000  He
  Ne208    1.0000 0.42594  0.55960  0.17763  Biso   1.000  Ne
  Ne209    1.0000 0.76883  0.82035  0.35062  Biso   1.000  Ne
  He209    1.0000 0.73509  0.81471  0.35803  Biso   1.000  He
  He210    1.0000 0.72109  0.79751  0.33281  Biso   1.000  He
  Ne210    1.0000 0.68815  0.79304  0.33246  Biso   1.000  Ne
  Ne211    1.0000 0.77378  0.32661  0.95817  Biso   1.000  Ne
  He211    1.0000 0.76367  0.35906  0.95943  Biso   1.000  He
  He212    1.0000 0.73321  0.36744  0.94346  Biso   1.000  He
  Ne212    1.0000 0.72462  0.39849  0.95155  Biso   1.000  Ne
  Ne213    1.0000 0.56227  0.51146  0.07913  Biso   1.000  Ne
  He213    1.0000 0.56683  0.53956  0.05823  Biso   1.000  He
  He214    1.0000 0.53954  0.55481  0.04909  Biso   1.000  He
  Ne214    1.0000 0.54359  0.58124  0.02654  Biso   1.000  Ne
  Ne215    1.0000 0.57918  0.33943  0.80383  Biso   1.000  Ne
  He215    1.0000 0.59723  0.36802  0.80143  Biso   1.000  He
  He216    1.0000 0.60410  0.37749  0.76973  Biso   1.000  He
  Ne216    1.0000 0.61833  0.40824  0.76500  Biso   1.000  Ne
  Ne217    1.0000 0.93083  0.34407  0.40273  Biso   1.000  Ne
  He217    1.0000 0.93060  0.37586  0.39571  Biso   1.000  He
  He218    1.0000 0.91743  0.38560  0.36725  Biso   1.000  He
  Ne218    1.0000 0.91520  0.41951  0.36217  Biso   1.000  Ne
  Ne219    1.0000 0.42558  0.87192  0.60324  Biso   1.000  Ne
  He219    1.0000 0.42701  0.84030  0.59658  Biso   1.000  He
  He220    1.0000 0.40840  0.81978  0.61259  Biso   1.000  He
  Ne220    1.0000 0.41536  0.78939  0.60347  Biso   1.000  Ne
  Ne221    1.0000 0.54284  0.42536  0.97655  Biso   1.000  Ne
  He221    1.0000 0.55087  0.39386  0.97272  Biso   1.000  He
  He222    1.0000 0.58020  0.38414  0.95658  Biso   1.000  He
  Ne222    1.0000 0.58350  0.35126  0.95553  Biso   1.000  Ne
  Ne223    1.0000 0.75868  0.07350  0.30093  Biso   1.000  Ne
  He223    1.0000 0.75218  0.09327  0.27283  Biso   1.000  He
  He224    1.0000 0.71955  0.08783  0.25910  Biso   1.000  He
  Ne224    1.0000 0.71600  0.10320  0.22732  Biso   1.000  Ne
  Ne225    1.0000 0.82420  0.92742  0.26599  Biso   1.000  Ne
  He225    1.0000 0.81382  0.90400  0.24686  Biso   1.000  He
  He226    1.0000 0.83143  0.90067  0.22105  Biso   1.000  He
  Ne226    1.0000 0.81865  0.88172  0.19700  Biso   1.000  Ne
  Ne227    1.0000 0.44066  0.91421  0.38897  Biso   1.000  Ne
  He227    1.0000 0.42351  0.92413  0.41523  Biso   1.000  He
  He228    1.0000 0.43190  0.91044  0.44235  Biso   1.000  He
  Ne228    1.0000 0.42097  0.92479  0.47067  Biso   1.000  Ne
  Ne229    1.0000 0.70970  0.83192  0.67280  Biso   1.000  Ne
  He229    1.0000 0.72110  0.80414  0.65683  Biso   1.000  He
  He230    1.0000 0.72236  0.77736  0.67603  Biso   1.000  He
  Ne230    1.0000 0.73429  0.74890  0.66113  Biso   1.000  Ne
  Ne231    1.0000 0.42980  0.15978  0.64079  Biso   1.000  Ne
  He231    1.0000 0.41851  0.15842  0.60903  Biso   1.000  He
  He232    1.0000 0.42199  0.19030  0.59488  Biso   1.000  He
  Ne232    1.0000 0.39273  0.20835  0.60337  Biso   1.000  Ne
  Ne233    1.0000 0.42519  0.66117  0.17663  Biso   1.000  Ne
  He233    1.0000 0.39907  0.67757  0.19138  Biso   1.000  He
  He234    1.0000 0.37359  0.65863  0.20049  Biso   1.000  He
  Ne234    1.0000 0.34658  0.67687  0.21249  Biso   1.000  Ne
  Ne235    1.0000 0.65837  0.58073  0.94194  Biso   1.000  Ne
  He235    1.0000 0.68719  0.56402  0.93884  Biso   1.000  He
  He236    1.0000 0.70931  0.58131  0.92187  Biso   1.000  He
  Ne236    1.0000 0.74009  0.56997  0.92717  Biso   1.000  Ne
  Ne237    1.0000 0.34708  0.65921  0.92341  Biso   1.000  Ne
  He237    1.0000 0.34043  0.62824  0.93580  Biso   1.000  He
  He238    1.0000 0.34717  0.60608  0.91359  Biso   1.000  He
  Ne238    1.0000 0.34060  0.57728  0.91958  Biso   1.000  Ne
  Ne239    1.0000 0.58334  0.63918  0.96134  Biso   1.000  Ne
  He239    1.0000 0.59263  0.66380  0.93876  Biso   1.000  He
  He240    1.0000 0.62375  0.67820  0.94628  Biso   1.000  He
  Ne240    1.0000 0.63365  0.70537  0.92852  Biso   1.000  Ne
  Ne241    1.0000 0.37725  0.82984  0.37960  Biso   1.000  Ne
  He241    1.0000 0.38750  0.81699  0.40855  Biso   1.000  He
  He242    1.0000 0.41922  0.81360  0.41145  Biso   1.000  He
  Ne242    1.0000 0.43058  0.80191  0.44131  Biso   1.000  Ne
  Ne243    1.0000 0.42646  0.04669  0.56989  Biso   1.000  Ne
  He243    1.0000 0.44254  0.04373  0.54121  Biso   1.000  He
  He244    1.0000 0.45151  0.07477  0.53039  Biso   1.000  He
  Ne244    1.0000 0.46915  0.07296  0.50369  Biso   1.000  Ne
  Ne245    1.0000 0.11184  0.88062  0.73889  Biso   1.000  Ne
  He245    1.0000 0.10801  0.88825  0.77087  Biso   1.000  He
  He246    1.0000 0.11276  0.86192  0.78876  Biso   1.000  He
  Ne246    1.0000 0.11230  0.86989  0.82202  Biso   1.000  Ne
  Ne247    1.0000 0.09088  0.86231  0.16206  Biso   1.000  Ne
  He247    1.0000 0.08533  0.84059  0.13496  Biso   1.000  He
  He248    1.0000 0.11164  0.82708  0.12461  Biso   1.000  He
  Ne248    1.0000 0.10919  0.80614  0.09936  Biso   1.000  Ne
  Ne249    1.0000 0.99203  0.48309  0.45938  Biso   1.000  Ne
  He249    1.0000 0.98716  0.44895  0.45427  Biso   1.000  He
  He250    1.0000 0.96641  0.43649  0.47607  Biso   1.000  He
  Ne250    1.0000 0.97089  0.40073  0.47624  Biso   1.000  Ne
  Ne251    1.0000 0.22522  0.37958  0.62225  Biso   1.000  Ne
  He251    1.0000 0.19688  0.38513  0.60603  Biso   1.000  He
  He252    1.0000 0.18250  0.40998  0.61679  Biso   1.000  He
  Ne252    1.0000 0.15359  0.41214  0.60321  Biso   1.000  Ne
  Ne253    1.0000 0.28509  0.32987  0.11480  Biso   1.000  Ne
  He253    1.0000 0.26930  0.30252  0.10478  Biso   1.000  He
  He254    1.0000 0.28234  0.27325  0.10820  Biso   1.000  He
  Ne254    1.0000 0.26158  0.25131  0.09458  Biso   1.000  Ne
  Ne255    1.0000 0.31902  0.58295  0.24375  Biso   1.000  Ne
  He255    1.0000 0.31200  0.56592  0.21511  Biso   1.000  He
  He256    1.0000 0.29323  0.58042  0.19372  Biso   1.000  He
  Ne256    1.0000 0.28896  0.56590  0.16665  Biso   1.000  Ne
  Ne257    1.0000 0.44022  0.71293  0.94786  Biso   1.000  Ne
  He257    1.0000 0.43637  0.70668  0.91546  Biso   1.000  He
  He258    1.0000 0.40641  0.70704  0.90386  Biso   1.000  He
  Ne258    1.0000 0.40492  0.70022  0.87157  Biso   1.000  Ne
  Ne259    1.0000 0.45647  0.14901  0.39415  Biso   1.000  Ne
  He259    1.0000 0.46853  0.16097  0.36719  Biso   1.000  He
  He260    1.0000 0.45552  0.14603  0.34187  Biso   1.000  He
  Ne260    1.0000 0.46287  0.15508  0.31138  Biso   1.000  Ne
