data_image0
_cell_length_a       47.3384
_cell_length_b       46.634
_cell_length_c       46.5908
_cell_angle_alpha    90
_cell_angle_beta     90
_cell_angle_gamma    90

_symmetry_space_group_name_H-M    "P 1"
_symmetry_int_tables_number       1

loop_
  _symmetry_equiv_pos_as_xyz
  'x, y, z'

loop_
  _atom_site_label
  _atom_site_occupancy
  _atom_site_fract_x
  _atom_site_fract_y
  _atom_site_fract_z
  _atom_site_thermal_displace_type
  _atom_site_B_iso_or_equiv
  _atom_site_type_symbol
  Ne1      1.0000 0.62186  0.03199  0.56751  Biso   1.000  Ne
  He1      1.0000 0.59121  0.04195  0.57493  Biso   1.000  He
  He2      1.0000 0.58632  0.04858  0.60787  Biso   1.000  He
  Ne2      1.0000 0.57009  0.02322  0.62402  Biso   1.000  Ne
  Ne3      1.0000 0.92921  0.84163  0.10184  Biso   1.000  Ne
  He3      1.0000 0.93174  0.86236  0.07941  Biso   1.000  He
  He4      1.0000 0.92503  0.89205  0.08974  Biso   1.000  He
  Ne4      1.0000 0.93301  0.91510  0.06771  Biso   1.000  Ne
  Ne5      1.0000 0.08646  0.88508  0.19015  Biso   1.000  Ne
  He5      1.0000 0.06503  0.89961  0.21038  Biso   1.000  He
  He6      1.0000 0.06888  0.88936  0.24157  Biso   1.000  He
  Ne6      1.0000 0.04608  0.89959  0.26560  Biso   1.000  Ne
  Ne7      1.0000 0.90491  0.04176  0.87059  Biso   1.000  Ne
  He7      1.0000 0.91558  0.05241  0.90178  Biso   1.000  He
  He8      1.0000 0.90727  0.03290  0.92914  Biso   1.000  He
  Ne8      1.0000 0.87724  0.04009  0.94046  Biso   1.000  Ne
  Ne9      1.0000 0.92793  0.65246  0.14163  Biso   1.000  Ne
  He9      1.0000 0.91282  0.68137  0.13952  Biso   1.000  He
  He10     1.0000 0.93190  0.70699  0.14780  Biso   1.000  He
  Ne10     1.0000 0.91761  0.73450  0.14411  Biso   1.000  Ne
  Ne11     1.0000 0.85571  0.43620  0.22967  Biso   1.000  Ne
  He11     1.0000 0.88491  0.42107  0.23150  Biso   1.000  He
  He12     1.0000 0.88581  0.39973  0.25541  Biso   1.000  He
  Ne12     1.0000 0.91451  0.38399  0.25636  Biso   1.000  Ne
  Ne13     1.0000 0.04024  0.89746  0.01928  Biso   1.000  Ne
  He13     1.0000 0.06423  0.92039  0.02018  Biso   1.000  He
  He14     1.0000 0.05604  0.95184  0.02515  Biso   1.000  He
  Ne14     1.0000 0.08009  0.97523  0.02212  Biso   1.000  Ne
  Ne15     1.0000 0.39180  0.88167  0.38803  Biso   1.000  Ne
  He15     1.0000 0.40794  0.87070  0.36236  Biso   1.000  He
  He16     1.0000 0.38928  0.87210  0.33300  Biso   1.000  He
  Ne16     1.0000 0.40545  0.86046  0.30682  Biso   1.000  Ne
  Ne17     1.0000 0.84266  0.87635  0.92145  Biso   1.000  Ne
  He17     1.0000 0.87451  0.87118  0.91260  Biso   1.000  He
  He18     1.0000 0.88727  0.84889  0.93264  Biso   1.000  He
  Ne18     1.0000 0.91890  0.84060  0.92825  Biso   1.000  Ne
  Ne19     1.0000 0.10885  0.26970  0.60077  Biso   1.000  Ne
  He19     1.0000 0.08935  0.27860  0.62558  Biso   1.000  He
  He20     1.0000 0.10222  0.27442  0.65708  Biso   1.000  He
  Ne20     1.0000 0.08455  0.28680  0.68220  Biso   1.000  Ne
  Ne21     1.0000 0.91966  0.62004  0.74066  Biso   1.000  Ne
  He21     1.0000 0.91204  0.58748  0.74058  Biso   1.000  He
  He22     1.0000 0.90122  0.57931  0.71208  Biso   1.000  He
  Ne22     1.0000 0.89347  0.54894  0.70998  Biso   1.000  Ne
  Ne23     1.0000 0.40018  0.38431  0.89241  Biso   1.000  Ne
  He23     1.0000 0.38038  0.39493  0.91655  Biso   1.000  He
  He24     1.0000 0.34879  0.39125  0.90807  Biso   1.000  He
  Ne24     1.0000 0.32659  0.39529  0.93259  Biso   1.000  Ne
  Ne25     1.0000 0.15987  0.39704  0.65219  Biso   1.000  Ne
  He25     1.0000 0.18652  0.39420  0.63500  Biso   1.000  He
  He26     1.0000 0.21574  0.39234  0.65347  Biso   1.000  He
  Ne26     1.0000 0.24543  0.39400  0.63673  Biso   1.000  Ne
  Ne27     1.0000 0.06866  0.71003  0.57785  Biso   1.000  Ne
  He27     1.0000 0.04472  0.73231  0.59098  Biso   1.000  He
  He28     1.0000 0.03035  0.75014  0.56859  Biso   1.000  He
  Ne28     1.0000 0.01599  0.77564  0.57970  Biso   1.000  Ne
  Ne29     1.0000 0.55668  0.92207  0.60482  Biso   1.000  Ne
  He29     1.0000 0.56542  0.89475  0.61872  Biso   1.000  He
  He30     1.0000 0.56298  0.86844  0.59924  Biso   1.000  He
  Ne30     1.0000 0.56941  0.83862  0.61670  Biso   1.000  Ne
  Ne31     1.0000 0.04238  0.47107  0.51241  Biso   1.000  Ne
  He31     1.0000 0.06810  0.45621  0.49896  Biso   1.000  He
  He32     1.0000 0.06217  0.42782  0.48200  Biso   1.000  He
  Ne32     1.0000 0.08989  0.41411  0.46661  Biso   1.000  Ne
  Ne33     1.0000 0.32250  0.56161  0.91260  Biso   1.000  Ne
  He33     1.0000 0.32254  0.57706  0.88284  Biso   1.000  He
  He34     1.0000 0.35056  0.58018  0.86546  Biso   1.000  He
  Ne34     1.0000 0.35615  0.55418  0.84386  Biso   1.000  Ne
  Ne35     1.0000 0.08527  0.56579  0.25988  Biso   1.000  Ne
  He35     1.0000 0.09285  0.59195  0.28128  Biso   1.000  He
  He36     1.0000 0.09668  0.58747  0.31385  Biso   1.000  He
  Ne36     1.0000 0.10593  0.61216  0.32918  Biso   1.000  Ne
  Ne37     1.0000 0.62206  0.15967  0.60830  Biso   1.000  Ne
  He37     1.0000 0.62318  0.19339  0.60868  Biso   1.000  He
  He38     1.0000 0.59367  0.20587  0.61161  Biso   1.000  He
  Ne38     1.0000 0.59551  0.23755  0.60650  Biso   1.000  Ne
  Ne39     1.0000 0.92473  0.97151  0.01336  Biso   1.000  Ne
  He39     1.0000 0.93219  0.00280  0.01114  Biso   1.000  He
  He40     1.0000 0.93312  0.01900  0.04188  Biso   1.000  He
  Ne40     1.0000 0.94390  0.05146  0.03792  Biso   1.000  Ne
  Ne41     1.0000 0.59713  0.27527  0.86847  Biso   1.000  Ne
  He41     1.0000 0.59178  0.27899  0.83632  Biso   1.000  He
  He42     1.0000 0.59153  0.24909  0.81820  Biso   1.000  He
  Ne42     1.0000 0.58640  0.25033  0.78499  Biso   1.000  Ne
  Ne43     1.0000 0.17508  0.09387  0.09112  Biso   1.000  Ne
  He43     1.0000 0.16165  0.09019  0.12115  Biso   1.000  He
  He44     1.0000 0.16399  0.11618  0.14117  Biso   1.000  He
  Ne44     1.0000 0.14995  0.11344  0.17202  Biso   1.000  Ne
  Ne45     1.0000 0.77924  0.88573  0.11761  Biso   1.000  Ne
  He45     1.0000 0.79706  0.90375  0.09926  Biso   1.000  He
  He46     1.0000 0.82776  0.89451  0.09606  Biso   1.000  He
  Ne46     1.0000 0.84765  0.91145  0.07552  Biso   1.000  Ne
  Ne47     1.0000 0.37320  0.38279  0.16680  Biso   1.000  Ne
  He47     1.0000 0.35840  0.38605  0.13908  Biso   1.000  He
  He48     1.0000 0.32493  0.38047  0.13903  Biso   1.000  He
  Ne48     1.0000 0.31024  0.39269  0.11176  Biso   1.000  Ne
  Ne49     1.0000 0.22318  0.90328  0.96974  Biso   1.000  Ne
  He49     1.0000 0.23405  0.87111  0.97058  Biso   1.000  He
  He50     1.0000 0.25071  0.86126  0.94442  Biso   1.000  He
  Ne50     1.0000 0.25366  0.83064  0.94240  Biso   1.000  Ne
  Ne51     1.0000 0.92161  0.53567  0.63350  Biso   1.000  Ne
  He51     1.0000 0.92827  0.55280  0.60564  Biso   1.000  He
  He52     1.0000 0.91693  0.58187  0.60456  Biso   1.000  He
  Ne52     1.0000 0.91456  0.59258  0.57427  Biso   1.000  Ne
  Ne53     1.0000 0.11300  0.35659  0.31490  Biso   1.000  Ne
  He53     1.0000 0.10979  0.35940  0.34843  Biso   1.000  He
  He54     1.0000 0.09792  0.38650  0.35879  Biso   1.000  He
  Ne54     1.0000 0.08681  0.38426  0.38781  Biso   1.000  Ne
  Ne55     1.0000 0.30432  0.06783  0.62049  Biso   1.000  Ne
  He55     1.0000 0.33315  0.05858  0.63395  Biso   1.000  He
  He56     1.0000 0.33915  0.07013  0.66524  Biso   1.000  He
  Ne56     1.0000 0.36461  0.05434  0.68089  Biso   1.000  Ne
  Ne57     1.0000 0.42613  0.87689  0.65515  Biso   1.000  Ne
  He57     1.0000 0.40113  0.86298  0.67289  Biso   1.000  He
  He58     1.0000 0.39782  0.87953  0.70340  Biso   1.000  He
  Ne58     1.0000 0.36746  0.87517  0.71882  Biso   1.000  Ne
  Ne59     1.0000 0.90355  0.63853  0.27764  Biso   1.000  Ne
  He59     1.0000 0.90088  0.61226  0.29982  Biso   1.000  He
  He60     1.0000 0.87450  0.59387  0.30429  Biso   1.000  He
  Ne60     1.0000 0.88001  0.56765  0.32569  Biso   1.000  Ne
  Ne61     1.0000 0.32443  0.05641  0.45646  Biso   1.000  Ne
  He61     1.0000 0.35434  0.06980  0.44701  Biso   1.000  He
  He62     1.0000 0.36897  0.08817  0.46652  Biso   1.000  He
  Ne62     1.0000 0.39704  0.10448  0.45262  Biso   1.000  Ne
  Ne63     1.0000 0.18714  0.07519  0.94510  Biso   1.000  Ne
  He63     1.0000 0.16948  0.08693  0.91940  Biso   1.000  He
  He64     1.0000 0.15527  0.06389  0.90235  Biso   1.000  He
  Ne64     1.0000 0.14334  0.07687  0.87504  Biso   1.000  Ne
  Ne65     1.0000 0.60943  0.04037  0.21679  Biso   1.000  Ne
  He65     1.0000 0.57927  0.02239  0.22498  Biso   1.000  He
  He66     1.0000 0.56434  0.00284  0.20321  Biso   1.000  He
  Ne66     1.0000 0.53629  0.98790  0.21346  Biso   1.000  Ne
  Ne67     1.0000 0.18258  0.32064  0.71448  Biso   1.000  Ne
  He67     1.0000 0.17737  0.35289  0.72194  Biso   1.000  He
  He68     1.0000 0.17437  0.36161  0.75608  Biso   1.000  He
  Ne68     1.0000 0.17030  0.39495  0.75984  Biso   1.000  Ne
  Ne69     1.0000 0.98569  0.39454  0.54083  Biso   1.000  Ne
  He69     1.0000 0.95288  0.40630  0.54175  Biso   1.000  He
  He70     1.0000 0.94631  0.42022  0.56974  Biso   1.000  He
  Ne70     1.0000 0.91622  0.43291  0.57245  Biso   1.000  Ne
  Ne71     1.0000 0.63452  0.57552  0.77327  Biso   1.000  Ne
  He71     1.0000 0.61047  0.56440  0.79163  Biso   1.000  He
  He72     1.0000 0.61836  0.54051  0.81209  Biso   1.000  He
  Ne72     1.0000 0.59340  0.53296  0.83148  Biso   1.000  Ne
  Ne73     1.0000 0.69369  0.65349  0.13887  Biso   1.000  Ne
  He73     1.0000 0.68288  0.62390  0.12404  Biso   1.000  He
  He74     1.0000 0.70588  0.60803  0.10848  Biso   1.000  He
  Ne74     1.0000 0.69534  0.58113  0.08991  Biso   1.000  Ne
  Ne75     1.0000 0.40957  0.95649  0.47279  Biso   1.000  Ne
  He75     1.0000 0.42544  0.93161  0.46411  Biso   1.000  He
  He76     1.0000 0.43251  0.91185  0.48807  Biso   1.000  He
  Ne76     1.0000 0.44277  0.88471  0.47587  Biso   1.000  Ne
  Ne77     1.0000 0.29294  0.73807  0.42764  Biso   1.000  Ne
  He77     1.0000 0.28836  0.76991  0.43397  Biso   1.000  He
  He78     1.0000 0.31713  0.78707  0.43386  Biso   1.000  He
  Ne78     1.0000 0.31259  0.81946  0.43300  Biso   1.000  Ne
  Ne79     1.0000 0.06875  0.19034  0.16498  Biso   1.000  Ne
  He79     1.0000 0.05942  0.16021  0.17743  Biso   1.000  He
  He80     1.0000 0.07684  0.15163  0.20300  Biso   1.000  He
  Ne80     1.0000 0.06873  0.12248  0.21516  Biso   1.000  Ne
  Ne81     1.0000 0.60788  0.54949  0.13562  Biso   1.000  Ne
  He81     1.0000 0.58766  0.56908  0.15497  Biso   1.000  He
  He82     1.0000 0.60435  0.57924  0.18452  Biso   1.000  He
  Ne82     1.0000 0.58445  0.59828  0.20339  Biso   1.000  Ne
  Ne83     1.0000 0.31061  0.55501  0.11982  Biso   1.000  Ne
  He83     1.0000 0.34353  0.54932  0.12286  Biso   1.000  He
  He84     1.0000 0.35587  0.55477  0.15245  Biso   1.000  He
  Ne84     1.0000 0.38791  0.55583  0.15618  Biso   1.000  Ne
  Ne85     1.0000 0.15757  0.21744  0.07822  Biso   1.000  Ne
  He85     1.0000 0.13147  0.19772  0.09200  Biso   1.000  He
  He86     1.0000 0.13213  0.16572  0.08245  Biso   1.000  He
  Ne86     1.0000 0.10473  0.14897  0.09026  Biso   1.000  Ne
  Ne87     1.0000 0.23248  0.80092  0.10572  Biso   1.000  Ne
  He87     1.0000 0.22257  0.81308  0.13232  Biso   1.000  He
  He88     1.0000 0.19515  0.83283  0.12821  Biso   1.000  He
  Ne88     1.0000 0.19045  0.85339  0.15572  Biso   1.000  Ne
  Ne89     1.0000 0.60211  0.87674  0.72627  Biso   1.000  Ne
  He89     1.0000 0.63311  0.88656  0.72620  Biso   1.000  He
  He90     1.0000 0.64779  0.88191  0.69611  Biso   1.000  He
  Ne90     1.0000 0.67724  0.89221  0.69635  Biso   1.000  Ne
  Ne91     1.0000 0.04369  0.56045  0.47681  Biso   1.000  Ne
  He91     1.0000 0.07651  0.55822  0.47297  Biso   1.000  He
  He92     1.0000 0.08657  0.55140  0.44092  Biso   1.000  He
  Ne92     1.0000 0.11975  0.54912  0.44035  Biso   1.000  Ne
  Ne93     1.0000 0.60743  0.05206  0.72603  Biso   1.000  Ne
  He93     1.0000 0.60016  0.07076  0.69978  Biso   1.000  He
  He94     1.0000 0.60970  0.10276  0.70084  Biso   1.000  He
  Ne94     1.0000 0.59484  0.12477  0.67867  Biso   1.000  Ne
  Ne95     1.0000 0.65466  0.05513  0.41541  Biso   1.000  Ne
  He95     1.0000 0.62791  0.07450  0.41791  Biso   1.000  He
  He96     1.0000 0.63663  0.10544  0.41886  Biso   1.000  He
  Ne96     1.0000 0.60900  0.12506  0.41775  Biso   1.000  Ne
  Ne97     1.0000 0.07681  0.57991  0.71460  Biso   1.000  Ne
  He97     1.0000 0.10759  0.57856  0.70448  Biso   1.000  He
  He98     1.0000 0.10955  0.57321  0.67077  Biso   1.000  He
  Ne98     1.0000 0.14093  0.56589  0.66314  Biso   1.000  Ne
  Ne99     1.0000 0.52811  0.38587  0.98515  Biso   1.000  Ne
  He99     1.0000 0.52826  0.40859  0.95820  Biso   1.000  He
  He100    1.0000 0.50155  0.42604  0.95931  Biso   1.000  He
  Ne100    1.0000 0.49959  0.44961  0.93742  Biso   1.000  Ne
  Ne101    1.0000 0.64031  0.53606  0.92012  Biso   1.000  Ne
  He101    1.0000 0.61040  0.54612  0.91713  Biso   1.000  He
  He102    1.0000 0.60265  0.56921  0.94084  Biso   1.000  He
  Ne102    1.0000 0.56988  0.58138  0.94310  Biso   1.000  Ne
  Ne103    1.0000 0.91191  0.61962  0.38642  Biso   1.000  Ne
  He103    1.0000 0.90275  0.64289  0.40532  Biso   1.000  He
  He104    1.0000 0.87444  0.63582  0.42061  Biso   1.000  He
  Ne104    1.0000 0.86350  0.66153  0.43980  Biso   1.000  Ne
  Ne105    1.0000 0.25002  0.36438  0.76409  Biso   1.000  Ne
  He105    1.0000 0.25335  0.37148  0.79553  Biso   1.000  He
  He106    1.0000 0.23389  0.35363  0.81590  Biso   1.000  He
  Ne106    1.0000 0.23706  0.35847  0.84862  Biso   1.000  Ne
  Ne107    1.0000 0.27847  0.78285  0.63993  Biso   1.000  Ne
  He107    1.0000 0.30158  0.80187  0.62318  Biso   1.000  He
  He108    1.0000 0.33231  0.78680  0.61702  Biso   1.000  He
  Ne108    1.0000 0.35540  0.80394  0.60000  Biso   1.000  Ne
  Ne109    1.0000 0.41251  0.05150  0.37351  Biso   1.000  Ne
  He109    1.0000 0.39196  0.07115  0.35567  Biso   1.000  He
  He110    1.0000 0.36264  0.05704  0.36001  Biso   1.000  He
  Ne110    1.0000 0.33481  0.07119  0.34750  Biso   1.000  Ne
  Ne111    1.0000 0.07269  0.07456  0.13759  Biso   1.000  Ne
  He111    1.0000 0.04808  0.05534  0.13129  Biso   1.000  He
  He112    1.0000 0.03730  0.05544  0.09890  Biso   1.000  He
  Ne112    1.0000 0.01338  0.03296  0.09162  Biso   1.000  Ne
  Ne113    1.0000 0.91029  0.39717  0.72458  Biso   1.000  Ne
  He113    1.0000 0.89846  0.36711  0.71787  Biso   1.000  He
  He114    1.0000 0.92251  0.34764  0.70568  Biso   1.000  He
  Ne114    1.0000 0.91071  0.31613  0.70062  Biso   1.000  Ne
  Ne115    1.0000 0.20707  0.52639  0.12577  Biso   1.000  Ne
  He115    1.0000 0.20575  0.53680  0.15865  Biso   1.000  He
  He116    1.0000 0.23286  0.54870  0.17152  Biso   1.000  He
  Ne116    1.0000 0.23205  0.55304  0.20384  Biso   1.000  Ne
  Ne117    1.0000 0.81080  0.53868  0.66185  Biso   1.000  Ne
  He117    1.0000 0.80785  0.54397  0.62923  Biso   1.000  He
  He118    1.0000 0.83270  0.56304  0.61523  Biso   1.000  He
  Ne118    1.0000 0.83124  0.56178  0.58336  Biso   1.000  Ne
  Ne119    1.0000 0.23813  0.36026  0.44687  Biso   1.000  Ne
  He119    1.0000 0.21719  0.38501  0.45773  Biso   1.000  He
  He120    1.0000 0.18753  0.38263  0.44381  Biso   1.000  He
  Ne120    1.0000 0.16739  0.40691  0.45656  Biso   1.000  Ne
  Ne121    1.0000 0.45030  0.57000  0.06035  Biso   1.000  Ne
  He121    1.0000 0.45316  0.55574  0.02662  Biso   1.000  He
  He122    1.0000 0.44236  0.52569  0.02112  Biso   1.000  He
  Ne122    1.0000 0.44174  0.52032  0.98762  Biso   1.000  Ne
  Ne123    1.0000 0.47807  0.00124  0.45541  Biso   1.000  Ne
  He123    1.0000 0.49047  0.03040  0.45363  Biso   1.000  He
  He124    1.0000 0.52233  0.03074  0.44039  Biso   1.000  He
  Ne124    1.0000 0.53513  0.05940  0.42982  Biso   1.000  Ne
  Ne125    1.0000 0.89299  0.07623  0.18551  Biso   1.000  Ne
  He125    1.0000 0.89602  0.08893  0.15700  Biso   1.000  He
  He126    1.0000 0.89304  0.06590  0.13215  Biso   1.000  He
  Ne126    1.0000 0.89820  0.07698  0.10254  Biso   1.000  Ne
  Ne127    1.0000 0.56206  0.89623  0.35520  Biso   1.000  Ne
  He127    1.0000 0.57405  0.89310  0.32295  Biso   1.000  He
  He128    1.0000 0.57072  0.86409  0.31134  Biso   1.000  He
  Ne128    1.0000 0.59184  0.84283  0.31313  Biso   1.000  Ne
  Ne129    1.0000 0.25460  0.89782  0.37622  Biso   1.000  Ne
  He129    1.0000 0.26583  0.89082  0.40378  Biso   1.000  He
  He130    1.0000 0.28633  0.91142  0.41723  Biso   1.000  He
  Ne130    1.0000 0.29145  0.90446  0.44884  Biso   1.000  Ne
  Ne131    1.0000 0.93087  0.87311  0.84698  Biso   1.000  Ne
  He131    1.0000 0.92435  0.84604  0.82968  Biso   1.000  He
  He132    1.0000 0.92877  0.81786  0.84518  Biso   1.000  He
  Ne132    1.0000 0.91717  0.79053  0.82921  Biso   1.000  Ne
  Ne133    1.0000 0.44843  0.07750  0.63926  Biso   1.000  Ne
  He133    1.0000 0.43679  0.10852  0.63769  Biso   1.000  He
  He134    1.0000 0.42523  0.11778  0.60738  Biso   1.000  He
  Ne134    1.0000 0.41508  0.14822  0.60681  Biso   1.000  Ne
  Ne135    1.0000 0.08468  0.37810  0.67329  Biso   1.000  Ne
  He135    1.0000 0.08424  0.39308  0.70330  Biso   1.000  He
  He136    1.0000 0.08663  0.36812  0.72684  Biso   1.000  He
  Ne136    1.0000 0.08424  0.38033  0.75991  Biso   1.000  Ne
  Ne137    1.0000 0.05255  0.51229  0.61376  Biso   1.000  Ne
  He137    1.0000 0.06101  0.54365  0.61881  Biso   1.000  He
  He138    1.0000 0.04701  0.56508  0.59720  Biso   1.000  He
  Ne138    1.0000 0.05607  0.59517  0.59774  Biso   1.000  Ne
  Ne139    1.0000 0.05829  0.21418  0.89258  Biso   1.000  Ne
  He139    1.0000 0.07682  0.18645  0.89415  Biso   1.000  He
  He140    1.0000 0.09467  0.18353  0.92412  Biso   1.000  He
  Ne140    1.0000 0.11753  0.16104  0.92174  Biso   1.000  Ne
  Ne141    1.0000 0.20417  0.84066  0.86671  Biso   1.000  Ne
  He141    1.0000 0.18514  0.86228  0.88187  Biso   1.000  He
  He142    1.0000 0.17350  0.85032  0.91197  Biso   1.000  He
  Ne142    1.0000 0.14791  0.86619  0.92366  Biso   1.000  Ne
  Ne143    1.0000 0.55441  0.53374  0.06008  Biso   1.000  Ne
  He143    1.0000 0.55394  0.50445  0.04218  Biso   1.000  He
  He144    1.0000 0.54363  0.50841  0.01042  Biso   1.000  He
  Ne144    1.0000 0.54535  0.48397  0.98836  Biso   1.000  Ne
  Ne145    1.0000 0.43760  0.64176  0.11744  Biso   1.000  Ne
  He145    1.0000 0.40566  0.62803  0.11844  Biso   1.000  He
  He146    1.0000 0.38011  0.64695  0.12798  Biso   1.000  He
  Ne146    1.0000 0.34898  0.63465  0.12511  Biso   1.000  Ne
  Ne147    1.0000 0.55022  0.87548  0.47830  Biso   1.000  Ne
  He147    1.0000 0.55714  0.90217  0.46787  Biso   1.000  He
  He148    1.0000 0.53169  0.91704  0.45436  Biso   1.000  He
  Ne148    1.0000 0.54119  0.94765  0.44854  Biso   1.000  Ne
  Ne149    1.0000 0.84291  0.05161  0.82009  Biso   1.000  Ne
  He149    1.0000 0.80991  0.04487  0.83158  Biso   1.000  He
  He150    1.0000 0.78590  0.05349  0.80930  Biso   1.000  He
  Ne150    1.0000 0.75643  0.03867  0.81694  Biso   1.000  Ne
  Ne151    1.0000 0.85070  0.89576  0.17678  Biso   1.000  Ne
  He151    1.0000 0.86370  0.86883  0.18756  Biso   1.000  He
  He152    1.0000 0.87822  0.84919  0.16451  Biso   1.000  He
  Ne152    1.0000 0.89617  0.82669  0.18019  Biso   1.000  Ne
  Ne153    1.0000 0.42706  0.71898  0.15222  Biso   1.000  Ne
  He153    1.0000 0.45014  0.73391  0.16607  Biso   1.000  He
  He154    1.0000 0.44184  0.74581  0.19493  Biso   1.000  He
  Ne154    1.0000 0.46771  0.76622  0.20954  Biso   1.000  Ne
  Ne155    1.0000 0.92736  0.31843  0.41789  Biso   1.000  Ne
  He155    1.0000 0.92193  0.31924  0.38273  Biso   1.000  He
  He156    1.0000 0.89911  0.30053  0.36969  Biso   1.000  He
  Ne156    1.0000 0.89026  0.30770  0.33860  Biso   1.000  Ne
  Ne157    1.0000 0.08490  0.89426  0.09584  Biso   1.000  Ne
  He157    1.0000 0.07875  0.86432  0.08923  Biso   1.000  He
  He158    1.0000 0.09986  0.84349  0.10716  Biso   1.000  He
  Ne158    1.0000 0.09089  0.81183  0.10502  Biso   1.000  Ne
  Ne159    1.0000 0.57522  0.36531  0.12536  Biso   1.000  Ne
  He159    1.0000 0.57909  0.39736  0.11220  Biso   1.000  He
  He160    1.0000 0.57583  0.40069  0.07717  Biso   1.000  He
  Ne160    1.0000 0.59227  0.42941  0.06832  Biso   1.000  Ne
  Ne161    1.0000 0.74005  0.36524  0.57970  Biso   1.000  Ne
  He161    1.0000 0.77019  0.37227  0.56966  Biso   1.000  He
  He162    1.0000 0.78812  0.38321  0.59578  Biso   1.000  He
  Ne162    1.0000 0.82049  0.39028  0.59274  Biso   1.000  Ne
  Ne163    1.0000 0.66827  0.39431  0.09842  Biso   1.000  Ne
  He163    1.0000 0.66487  0.37395  0.12539  Biso   1.000  He
  He164    1.0000 0.65278  0.39130  0.15182  Biso   1.000  He
  Ne164    1.0000 0.64652  0.37281  0.18024  Biso   1.000  Ne
  Ne165    1.0000 0.41363  0.19314  0.45735  Biso   1.000  Ne
  He165    1.0000 0.39813  0.21933  0.44516  Biso   1.000  He
  He166    1.0000 0.36684  0.22202  0.45904  Biso   1.000  He
  Ne166    1.0000 0.34901  0.24861  0.44719  Biso   1.000  Ne
  Ne167    1.0000 0.84823  0.49700  0.12895  Biso   1.000  Ne
  He167    1.0000 0.82649  0.47442  0.11685  Biso   1.000  He
  He168    1.0000 0.83778  0.44411  0.11772  Biso   1.000  He
  Ne168    1.0000 0.81294  0.42204  0.10839  Biso   1.000  Ne
  Ne169    1.0000 0.93191  0.45952  0.46246  Biso   1.000  Ne
  He169    1.0000 0.94479  0.42729  0.46490  Biso   1.000  He
  He170    1.0000 0.97676  0.42767  0.45810  Biso   1.000  He
  Ne170    1.0000 0.99027  0.39603  0.45184  Biso   1.000  Ne
  Ne171    1.0000 0.18752  0.58779  0.40116  Biso   1.000  Ne
  He171    1.0000 0.21856  0.58310  0.40343  Biso   1.000  He
  He172    1.0000 0.22923  0.58653  0.43454  Biso   1.000  He
  Ne172    1.0000 0.26103  0.57915  0.43826  Biso   1.000  Ne
  Ne173    1.0000 0.25176  0.90312  0.26649  Biso   1.000  Ne
  He173    1.0000 0.27552  0.92476  0.25608  Biso   1.000  He
  He174    1.0000 0.26503  0.93688  0.22863  Biso   1.000  He
  Ne174    1.0000 0.28491  0.96047  0.21453  Biso   1.000  Ne
  Ne175    1.0000 0.60396  0.83568  0.42602  Biso   1.000  Ne
  He175    1.0000 0.62601  0.81789  0.41398  Biso   1.000  He
  He176    1.0000 0.64970  0.81272  0.43752  Biso   1.000  He
  Ne176    1.0000 0.67610  0.80103  0.42460  Biso   1.000  Ne
  Ne177    1.0000 0.92611  0.40137  0.37059  Biso   1.000  Ne
  He177    1.0000 0.89241  0.39671  0.37543  Biso   1.000  He
  He178    1.0000 0.88139  0.38441  0.40315  Biso   1.000  He
  Ne178    1.0000 0.84752  0.38009  0.40550  Biso   1.000  Ne
  Ne179    1.0000 0.41376  0.74270  0.35146  Biso   1.000  Ne
  He179    1.0000 0.40576  0.76780  0.37075  Biso   1.000  He
  He180    1.0000 0.41746  0.76799  0.40249  Biso   1.000  He
  Ne180    1.0000 0.41533  0.79543  0.41799  Biso   1.000  Ne
  Ne181    1.0000 0.42358  0.93052  0.56275  Biso   1.000  Ne
  He181    1.0000 0.43611  0.95932  0.55562  Biso   1.000  He
  He182    1.0000 0.42011  0.98457  0.56535  Biso   1.000  He
  Ne182    1.0000 0.43744  0.01127  0.55810  Biso   1.000  Ne
  Ne183    1.0000 0.92857  0.15138  0.74683  Biso   1.000  Ne
  He183    1.0000 0.93097  0.15570  0.78018  Biso   1.000  He
  He184    1.0000 0.91735  0.13138  0.80037  Biso   1.000  He
  Ne184    1.0000 0.92114  0.13907  0.83150  Biso   1.000  Ne
  Ne185    1.0000 0.09010  0.25632  0.41737  Biso   1.000  Ne
  He185    1.0000 0.11320  0.27985  0.42663  Biso   1.000  He
  He186    1.0000 0.10228  0.31080  0.42343  Biso   1.000  He
  Ne186    1.0000 0.12481  0.33421  0.43154  Biso   1.000  Ne
  Ne187    1.0000 0.49569  0.45407  0.07273  Biso   1.000  Ne
  He187    1.0000 0.46650  0.43961  0.07209  Biso   1.000  He
  He188    1.0000 0.46888  0.40844  0.05810  Biso   1.000  He
  Ne188    1.0000 0.43813  0.39215  0.05733  Biso   1.000  Ne
  Ne189    1.0000 0.01830  0.27763  0.15101  Biso   1.000  Ne
  He189    1.0000 0.01640  0.27633  0.11915  Biso   1.000  He
  He190    1.0000 0.00342  0.30264  0.10577  Biso   1.000  He
  Ne190    1.0000 0.99866  0.30163  0.07361  Biso   1.000  Ne
  Ne191    1.0000 0.41890  0.29404  0.84216  Biso   1.000  Ne
  He191    1.0000 0.41146  0.30340  0.87509  Biso   1.000  He
  He192    1.0000 0.38972  0.28222  0.89287  Biso   1.000  He
  Ne192    1.0000 0.38689  0.29069  0.92486  Biso   1.000  Ne
  Ne193    1.0000 0.42319  0.66544  0.87580  Biso   1.000  Ne
  He193    1.0000 0.41701  0.64219  0.89616  Biso   1.000  He
  He194    1.0000 0.40239  0.65362  0.92151  Biso   1.000  He
  Ne194    1.0000 0.40306  0.63572  0.95025  Biso   1.000  Ne
  Ne195    1.0000 0.38959  0.27620  0.58001  Biso   1.000  Ne
  He195    1.0000 0.37513  0.27233  0.55234  Biso   1.000  He
  He196    1.0000 0.35863  0.29712  0.54362  Biso   1.000  He
  Ne196    1.0000 0.33393  0.28996  0.52278  Biso   1.000  Ne
  Ne197    1.0000 0.85246  0.25573  0.41373  Biso   1.000  Ne
  He197    1.0000 0.87295  0.23261  0.42759  Biso   1.000  He
  He198    1.0000 0.90148  0.24517  0.43605  Biso   1.000  He
  Ne198    1.0000 0.92261  0.22340  0.45230  Biso   1.000  Ne
  Ne199    1.0000 0.01152  0.94636  0.94030  Biso   1.000  Ne
  He199    1.0000 0.98042  0.95156  0.93339  Biso   1.000  He
  He200    1.0000 0.96012  0.92847  0.94812  Biso   1.000  He
  Ne200    1.0000 0.92770  0.92997  0.93902  Biso   1.000  Ne
  Ne201    1.0000 0.58185  0.66861  0.92156  Biso   1.000  Ne
  He201    1.0000 0.61270  0.67126  0.92150  Biso   1.000  He
  He202    1.0000 0.62721  0.64606  0.93389  Biso   1.000  He
  Ne202    1.0000 0.65984  0.64701  0.93556  Biso   1.000  Ne
  Ne203    1.0000 0.67530  0.88859  0.42742  Biso   1.000  Ne
  He203    1.0000 0.68557  0.88532  0.39544  Biso   1.000  He
  He204    1.0000 0.66499  0.87602  0.37267  Biso   1.000  He
  Ne204    1.0000 0.67854  0.87066  0.34072  Biso   1.000  Ne
  Ne205    1.0000 0.05796  0.02547  0.94809  Biso   1.000  Ne
  He205    1.0000 0.06032  0.05135  0.93022  Biso   1.000  He
  He206    1.0000 0.05498  0.07956  0.94809  Biso   1.000  He
  Ne206    1.0000 0.05803  0.10726  0.93093  Biso   1.000  Ne
  Ne207    1.0000 0.41370  0.31734  0.08732  Biso   1.000  Ne
  He207    1.0000 0.38105  0.30882  0.09084  Biso   1.000  He
  He208    1.0000 0.37497  0.28246  0.11279  Biso   1.000  He
  Ne208    1.0000 0.34356  0.28353  0.12359  Biso   1.000  Ne
  Ne209    1.0000 0.26186  0.87645  0.62335  Biso   1.000  Ne
  He209    1.0000 0.28516  0.88810  0.64067  Biso   1.000  He
  He210    1.0000 0.31408  0.88611  0.62666  Biso   1.000  He
  Ne210    1.0000 0.33943  0.89493  0.64520  Biso   1.000  Ne
  Ne211    1.0000 0.65509  0.37767  0.90721  Biso   1.000  Ne
  He211    1.0000 0.61973  0.37500  0.90830  Biso   1.000  He
  He212    1.0000 0.60770  0.37355  0.87830  Biso   1.000  He
  Ne212    1.0000 0.57424  0.37449  0.87910  Biso   1.000  Ne
  Ne213    1.0000 0.69221  0.75138  0.07838  Biso   1.000  Ne
  He213    1.0000 0.67148  0.75570  0.05421  Biso   1.000  He
  He214    1.0000 0.67825  0.78446  0.03886  Biso   1.000  He
  Ne214    1.0000 0.65873  0.79051  0.01370  Biso   1.000  Ne
  Ne215    1.0000 0.79437  0.54789  0.38882  Biso   1.000  Ne
  He215    1.0000 0.82965  0.55200  0.39398  Biso   1.000  He
  He216    1.0000 0.84180  0.54272  0.42128  Biso   1.000  He
  Ne216    1.0000 0.87487  0.54540  0.42441  Biso   1.000  Ne
  Ne217    1.0000 0.02711  0.42700  0.60391  Biso   1.000  Ne
  He217    1.0000 0.06047  0.42163  0.60436  Biso   1.000  He
  He218    1.0000 0.06392  0.39593  0.58638  Biso   1.000  He
  Ne218    1.0000 0.09360  0.38373  0.58539  Biso   1.000  Ne
  Ne219    1.0000 0.82961  0.10507  0.89222  Biso   1.000  Ne
  He219    1.0000 0.85755  0.10823  0.90935  Biso   1.000  He
  He220    1.0000 0.86384  0.13963  0.91717  Biso   1.000  He
  Ne220    1.0000 0.89345  0.14328  0.92943  Biso   1.000  Ne
