data_image0
_cell_length_a       46.7588
_cell_length_b       46.6626
_cell_length_c       46.5691
_cell_angle_alpha    90
_cell_angle_beta     90
_cell_angle_gamma    90

_symmetry_space_group_name_H-M    "P 1"
_symmetry_int_tables_number       1

loop_
  _symmetry_equiv_pos_as_xyz
  'x, y, z'

loop_
  _atom_site_label
  _atom_site_occupancy
  _atom_site_fract_x
  _atom_site_fract_y
  _atom_site_fract_z
  _atom_site_thermal_displace_type
  _atom_site_B_iso_or_equiv
  _atom_site_type_symbol
  Ne1      1.0000 0.26209  0.82847  0.55922  Biso   1.000  Ne
  He1      1.0000 0.27951  0.84709  0.57843  Biso   1.000  He
  He2      1.0000 0.31141  0.83551  0.58184  Biso   1.000  He
  Ne2      1.0000 0.33072  0.85250  0.60491  Biso   1.000  Ne
  Ne3      1.0000 0.42867  0.14413  0.56754  Biso   1.000  Ne
  He3      1.0000 0.42390  0.17635  0.57103  Biso   1.000  He
  He4      1.0000 0.39589  0.18044  0.58331  Biso   1.000  He
  Ne4      1.0000 0.39164  0.21401  0.59342  Biso   1.000  Ne
  Ne5      1.0000 0.59438  0.16541  0.39517  Biso   1.000  Ne
  He5      1.0000 0.60498  0.18793  0.37281  Biso   1.000  He
  He6      1.0000 0.60417  0.17526  0.34334  Biso   1.000  He
  Ne6      1.0000 0.61294  0.19421  0.31673  Biso   1.000  Ne
  Ne7      1.0000 0.26229  0.08897  0.59681  Biso   1.000  Ne
  He7      1.0000 0.25477  0.05361  0.59343  Biso   1.000  He
  He8      1.0000 0.22068  0.05121  0.58243  Biso   1.000  He
  Ne8      1.0000 0.21161  0.02282  0.57257  Biso   1.000  Ne
  Ne9      1.0000 0.92208  0.17546  0.90741  Biso   1.000  Ne
  He9      1.0000 0.93116  0.17909  0.87593  Biso   1.000  He
  He10     1.0000 0.91015  0.16911  0.85423  Biso   1.000  He
  Ne10     1.0000 0.92119  0.18117  0.82351  Biso   1.000  Ne
  Ne11     1.0000 0.17317  0.15613  0.91566  Biso   1.000  Ne
  He11     1.0000 0.19304  0.13085  0.92346  Biso   1.000  He
  He12     1.0000 0.18166  0.10104  0.90984  Biso   1.000  He
  Ne12     1.0000 0.19925  0.07456  0.91511  Biso   1.000  Ne
  Ne13     1.0000 0.90275  0.65291  0.70772  Biso   1.000  Ne
  He13     1.0000 0.91298  0.67282  0.73146  Biso   1.000  He
  He14     1.0000 0.90522  0.66659  0.76299  Biso   1.000  He
  Ne14     1.0000 0.91631  0.69112  0.78305  Biso   1.000  Ne
  Ne15     1.0000 0.10256  0.20440  0.80065  Biso   1.000  Ne
  He15     1.0000 0.08853  0.21093  0.83276  Biso   1.000  He
  He16     1.0000 0.10352  0.19482  0.85508  Biso   1.000  He
  Ne16     1.0000 0.09828  0.20841  0.88664  Biso   1.000  Ne
  Ne17     1.0000 0.92389  0.12137  0.09688  Biso   1.000  Ne
  He17     1.0000 0.89779  0.12961  0.07896  Biso   1.000  He
  He18     1.0000 0.88344  0.15755  0.08839  Biso   1.000  He
  Ne18     1.0000 0.85605  0.16442  0.06851  Biso   1.000  Ne
  Ne19     1.0000 0.41725  0.09705  0.63807  Biso   1.000  Ne
  He19     1.0000 0.40104  0.08476  0.61123  Biso   1.000  He
  He20     1.0000 0.36851  0.09166  0.60959  Biso   1.000  He
  Ne20     1.0000 0.35429  0.07701  0.58175  Biso   1.000  Ne
  Ne21     1.0000 0.82517  0.60178  0.31412  Biso   1.000  Ne
  He21     1.0000 0.83166  0.60866  0.34666  Biso   1.000  He
  He22     1.0000 0.85577  0.58918  0.36003  Biso   1.000  He
  Ne22     1.0000 0.85895  0.59451  0.39258  Biso   1.000  Ne
  Ne23     1.0000 0.41997  0.87072  0.30391  Biso   1.000  Ne
  He23     1.0000 0.40909  0.88402  0.33263  Biso   1.000  He
  He24     1.0000 0.43263  0.90337  0.34993  Biso   1.000  He
  Ne24     1.0000 0.42089  0.92614  0.37244  Biso   1.000  Ne
  Ne25     1.0000 0.08451  0.63293  0.43690  Biso   1.000  Ne
  He25     1.0000 0.10221  0.64597  0.41515  Biso   1.000  He
  He26     1.0000 0.13376  0.64708  0.42587  Biso   1.000  He
  Ne26     1.0000 0.15251  0.66512  0.40583  Biso   1.000  Ne
  Ne27     1.0000 0.31246  0.28274  0.45917  Biso   1.000  Ne
  He27     1.0000 0.33219  0.26981  0.43549  Biso   1.000  He
  He28     1.0000 0.32737  0.28796  0.40849  Biso   1.000  He
  Ne28     1.0000 0.34874  0.28185  0.38403  Biso   1.000  Ne
  Ne29     1.0000 0.48060  0.95830  0.42462  Biso   1.000  Ne
  He29     1.0000 0.48121  0.96438  0.45702  Biso   1.000  He
  He30     1.0000 0.51135  0.96971  0.47189  Biso   1.000  He
  Ne30     1.0000 0.50905  0.96683  0.50350  Biso   1.000  Ne
  Ne31     1.0000 0.45687  0.01266  0.56087  Biso   1.000  Ne
  He31     1.0000 0.44355  0.01563  0.53067  Biso   1.000  He
  He32     1.0000 0.43861  0.04491  0.52570  Biso   1.000  He
  Ne32     1.0000 0.42718  0.04981  0.49437  Biso   1.000  Ne
  Ne33     1.0000 0.86743  0.78437  0.10039  Biso   1.000  Ne
  He33     1.0000 0.89350  0.80284  0.09423  Biso   1.000  He
  He34     1.0000 0.88916  0.83611  0.09923  Biso   1.000  He
  Ne34     1.0000 0.91763  0.85325  0.09316  Biso   1.000  Ne
  Ne35     1.0000 0.66808  0.58580  0.08918  Biso   1.000  Ne
  He35     1.0000 0.68393  0.59915  0.11449  Biso   1.000  He
  He36     1.0000 0.67290  0.58605  0.14415  Biso   1.000  He
  Ne36     1.0000 0.68884  0.59795  0.17106  Biso   1.000  Ne
  Ne37     1.0000 0.52804  0.60441  0.95849  Biso   1.000  Ne
  He37     1.0000 0.52339  0.57362  0.95510  Biso   1.000  He
  He38     1.0000 0.49117  0.56536  0.96372  Biso   1.000  He
  Ne38     1.0000 0.48253  0.53281  0.96174  Biso   1.000  Ne
  Ne39     1.0000 0.42859  0.34485  0.80803  Biso   1.000  Ne
  He39     1.0000 0.42530  0.36875  0.83263  Biso   1.000  He
  He40     1.0000 0.40093  0.38958  0.82418  Biso   1.000  He
  Ne40     1.0000 0.39336  0.41189  0.84514  Biso   1.000  Ne
  Ne41     1.0000 0.92247  0.40686  0.25210  Biso   1.000  Ne
  He41     1.0000 0.92308  0.40373  0.28411  Biso   1.000  He
  He42     1.0000 0.94036  0.42593  0.30377  Biso   1.000  He
  Ne42     1.0000 0.93958  0.42215  0.33558  Biso   1.000  Ne
  Ne43     1.0000 0.36559  0.12595  0.40766  Biso   1.000  Ne
  He43     1.0000 0.38912  0.14819  0.41654  Biso   1.000  He
  He44     1.0000 0.38987  0.17986  0.40335  Biso   1.000  He
  Ne44     1.0000 0.41224  0.20071  0.41645  Biso   1.000  Ne
  Ne45     1.0000 0.73194  0.55871  0.42648  Biso   1.000  Ne
  He45     1.0000 0.75083  0.58790  0.43038  Biso   1.000  He
  He46     1.0000 0.75277  0.60902  0.40480  Biso   1.000  He
  Ne46     1.0000 0.76838  0.63726  0.41113  Biso   1.000  Ne
  Ne47     1.0000 0.93686  0.65886  0.37111  Biso   1.000  Ne
  He47     1.0000 0.92464  0.67260  0.34387  Biso   1.000  He
  He48     1.0000 0.91005  0.70212  0.34428  Biso   1.000  He
  Ne48     1.0000 0.92943  0.72678  0.33104  Biso   1.000  Ne
  Ne49     1.0000 0.89705  0.83734  0.83219  Biso   1.000  Ne
  He49     1.0000 0.91348  0.86743  0.83670  Biso   1.000  He
  He50     1.0000 0.89979  0.89480  0.81844  Biso   1.000  He
  Ne50     1.0000 0.91416  0.92365  0.82867  Biso   1.000  Ne
  Ne51     1.0000 0.93517  0.06297  0.17466  Biso   1.000  Ne
  He51     1.0000 0.92653  0.09166  0.19160  Biso   1.000  He
  He52     1.0000 0.93149  0.12049  0.17647  Biso   1.000  He
  Ne52     1.0000 0.92092  0.14693  0.19449  Biso   1.000  Ne
  Ne53     1.0000 0.08391  0.61212  0.58753  Biso   1.000  Ne
  He53     1.0000 0.09600  0.59125  0.56514  Biso   1.000  He
  He54     1.0000 0.07642  0.56175  0.56359  Biso   1.000  He
  Ne54     1.0000 0.09146  0.53536  0.54770  Biso   1.000  Ne
  Ne55     1.0000 0.88569  0.40304  0.58872  Biso   1.000  Ne
  He55     1.0000 0.85354  0.40048  0.59361  Biso   1.000  He
  He56     1.0000 0.83795  0.38049  0.57245  Biso   1.000  He
  Ne56     1.0000 0.80635  0.37506  0.58128  Biso   1.000  Ne
  Ne57     1.0000 0.70354  0.13248  0.60884  Biso   1.000  Ne
  He57     1.0000 0.68666  0.10271  0.60348  Biso   1.000  He
  He58     1.0000 0.65829  0.10656  0.58854  Biso   1.000  He
  Ne58     1.0000 0.64308  0.08061  0.57815  Biso   1.000  Ne
  Ne59     1.0000 0.65967  0.90426  0.41088  Biso   1.000  Ne
  He59     1.0000 0.68907  0.89985  0.42507  Biso   1.000  He
  He60     1.0000 0.70503  0.92612  0.42339  Biso   1.000  He
  Ne60     1.0000 0.73790  0.92247  0.43194  Biso   1.000  Ne
  Ne61     1.0000 0.63619  0.57174  0.87883  Biso   1.000  Ne
  He61     1.0000 0.65720  0.58683  0.85985  Biso   1.000  He
  He62     1.0000 0.68645  0.59705  0.87178  Biso   1.000  He
  Ne62     1.0000 0.70428  0.60565  0.84591  Biso   1.000  Ne
  Ne63     1.0000 0.66416  0.91878  0.58475  Biso   1.000  Ne
  He63     1.0000 0.69475  0.93441  0.58845  Biso   1.000  He
  He64     1.0000 0.71275  0.92201  0.61330  Biso   1.000  He
  Ne64     1.0000 0.74063  0.94114  0.61648  Biso   1.000  Ne
  Ne65     1.0000 0.58235  0.88339  0.59391  Biso   1.000  Ne
  He65     1.0000 0.58051  0.91421  0.60476  Biso   1.000  He
  He66     1.0000 0.58930  0.91881  0.63607  Biso   1.000  He
  Ne66     1.0000 0.58334  0.94795  0.64319  Biso   1.000  Ne
  Ne67     1.0000 0.60245  0.08299  0.29630  Biso   1.000  Ne
  He67     1.0000 0.62658  0.09562  0.31427  Biso   1.000  He
  He68     1.0000 0.64675  0.07510  0.33018  Biso   1.000  He
  Ne68     1.0000 0.67002  0.08990  0.34849  Biso   1.000  Ne
  Ne69     1.0000 0.92219  0.37581  0.41208  Biso   1.000  Ne
  He69     1.0000 0.90539  0.35526  0.43113  Biso   1.000  He
  He70     1.0000 0.89214  0.32996  0.41226  Biso   1.000  He
  Ne70     1.0000 0.87538  0.30932  0.43129  Biso   1.000  Ne
  Ne71     1.0000 0.35265  0.36962  0.07816  Biso   1.000  Ne
  He71     1.0000 0.34203  0.33910  0.06518  Biso   1.000  He
  He72     1.0000 0.31480  0.33266  0.08205  Biso   1.000  He
  Ne72     1.0000 0.29237  0.31244  0.06806  Biso   1.000  Ne
  Ne73     1.0000 0.70783  0.28644  0.88776  Biso   1.000  Ne
  He73     1.0000 0.67987  0.27155  0.89843  Biso   1.000  He
  He74     1.0000 0.65431  0.29378  0.90191  Biso   1.000  He
  Ne74     1.0000 0.62560  0.28256  0.90358  Biso   1.000  Ne
  Ne75     1.0000 0.89512  0.22005  0.43952  Biso   1.000  Ne
  He75     1.0000 0.91698  0.22101  0.41387  Biso   1.000  He
  He76     1.0000 0.90404  0.23525  0.38580  Biso   1.000  He
  Ne76     1.0000 0.92395  0.23441  0.36076  Biso   1.000  Ne
  Ne77     1.0000 0.15954  0.72711  0.58212  Biso   1.000  Ne
  He77     1.0000 0.14992  0.70426  0.60172  Biso   1.000  He
  He78     1.0000 0.11855  0.71109  0.61891  Biso   1.000  He
  Ne78     1.0000 0.09227  0.69672  0.60108  Biso   1.000  Ne
  Ne79     1.0000 0.86841  0.41067  0.68364  Biso   1.000  Ne
  He79     1.0000 0.89465  0.39252  0.67463  Biso   1.000  He
  He80     1.0000 0.91369  0.37649  0.69627  Biso   1.000  He
  Ne80     1.0000 0.93921  0.36540  0.68080  Biso   1.000  Ne
  Ne81     1.0000 0.45264  0.89123  0.60813  Biso   1.000  Ne
  He81     1.0000 0.43410  0.90309  0.58366  Biso   1.000  He
  He82     1.0000 0.44874  0.92539  0.56453  Biso   1.000  He
  Ne82     1.0000 0.43052  0.93313  0.53876  Biso   1.000  Ne
  Ne83     1.0000 0.08257  0.83007  0.07538  Biso   1.000  Ne
  He83     1.0000 0.10242  0.80802  0.09406  Biso   1.000  He
  He84     1.0000 0.08225  0.78638  0.11329  Biso   1.000  He
  Ne84     1.0000 0.09876  0.76422  0.13216  Biso   1.000  Ne
  Ne85     1.0000 0.61140  0.44150  0.94759  Biso   1.000  Ne
  He85     1.0000 0.59728  0.41019  0.94739  Biso   1.000  He
  He86     1.0000 0.61384  0.38659  0.92951  Biso   1.000  He
  Ne86     1.0000 0.60497  0.35704  0.93169  Biso   1.000  Ne
  Ne87     1.0000 0.43731  0.39648  0.17263  Biso   1.000  Ne
  He87     1.0000 0.40812  0.41046  0.17639  Biso   1.000  He
  He88     1.0000 0.38624  0.38776  0.18226  Biso   1.000  He
  Ne88     1.0000 0.35406  0.40260  0.18295  Biso   1.000  Ne
  Ne89     1.0000 0.17108  0.56531  0.42356  Biso   1.000  Ne
  He89     1.0000 0.20176  0.57222  0.43424  Biso   1.000  He
  He90     1.0000 0.22444  0.58049  0.41012  Biso   1.000  He
  Ne90     1.0000 0.22907  0.61475  0.40544  Biso   1.000  Ne
  Ne91     1.0000 0.13815  0.34169  0.57741  Biso   1.000  Ne
  He91     1.0000 0.12073  0.37042  0.57936  Biso   1.000  He
  He92     1.0000 0.13936  0.39624  0.58508  Biso   1.000  He
  Ne92     1.0000 0.12408  0.42514  0.58326  Biso   1.000  Ne
  Ne93     1.0000 0.43377  0.45193  0.96009  Biso   1.000  Ne
  He93     1.0000 0.46532  0.45128  0.95634  Biso   1.000  He
  He94     1.0000 0.47896  0.42444  0.94621  Biso   1.000  He
  Ne94     1.0000 0.51104  0.42933  0.94063  Biso   1.000  Ne
  Ne95     1.0000 0.43026  0.56331  0.02299  Biso   1.000  Ne
  He95     1.0000 0.42011  0.54719  0.04770  Biso   1.000  He
  He96     1.0000 0.43419  0.55806  0.07719  Biso   1.000  He
  Ne96     1.0000 0.42907  0.53928  0.10305  Biso   1.000  Ne
  Ne97     1.0000 0.83239  0.87964  0.90421  Biso   1.000  Ne
  He97     1.0000 0.80384  0.86345  0.90485  Biso   1.000  He
  He98     1.0000 0.77941  0.88219  0.91941  Biso   1.000  He
  Ne98     1.0000 0.74984  0.87014  0.91766  Biso   1.000  Ne
  Ne99     1.0000 0.09264  0.33549  0.66673  Biso   1.000  Ne
  He99     1.0000 0.08867  0.36565  0.65487  Biso   1.000  He
  He100    1.0000 0.09563  0.39205  0.67497  Biso   1.000  He
  Ne100    1.0000 0.09483  0.42157  0.65789  Biso   1.000  Ne
  Ne101    1.0000 0.17980  0.08205  0.17300  Biso   1.000  Ne
  He101    1.0000 0.14631  0.07404  0.16851  Biso   1.000  He
  He102    1.0000 0.14188  0.07077  0.13670  Biso   1.000  He
  Ne102    1.0000 0.11125  0.07088  0.12674  Biso   1.000  Ne
  Ne103    1.0000 0.42380  0.62912  0.82666  Biso   1.000  Ne
  He103    1.0000 0.41035  0.60275  0.81362  Biso   1.000  He
  He104    1.0000 0.39419  0.60784  0.78383  Biso   1.000  He
  Ne104    1.0000 0.37479  0.58259  0.76964  Biso   1.000  Ne
  Ne105    1.0000 0.30890  0.61149  0.13772  Biso   1.000  Ne
  He105    1.0000 0.33746  0.61168  0.11928  Biso   1.000  He
  He106    1.0000 0.36217  0.63208  0.13328  Biso   1.000  He
  Ne106    1.0000 0.38857  0.63319  0.11338  Biso   1.000  Ne
  Ne107    1.0000 0.10154  0.91684  0.14684  Biso   1.000  Ne
  He107    1.0000 0.12406  0.89168  0.15814  Biso   1.000  He
  He108    1.0000 0.14036  0.89804  0.18775  Biso   1.000  He
  Ne108    1.0000 0.16104  0.87482  0.19798  Biso   1.000  Ne
  Ne109    1.0000 0.90646  0.29084  0.16498  Biso   1.000  Ne
  He109    1.0000 0.89438  0.26424  0.18065  Biso   1.000  He
  He110    1.0000 0.90206  0.25937  0.21240  Biso   1.000  He
  Ne110    1.0000 0.88872  0.23379  0.22692  Biso   1.000  Ne
  Ne111    1.0000 0.94885  0.55488  0.48392  Biso   1.000  Ne
  He111    1.0000 0.95517  0.55311  0.51334  Biso   1.000  He
  He112    1.0000 0.97943  0.57505  0.52429  Biso   1.000  He
  Ne112    1.0000 0.98714  0.57281  0.55704  Biso   1.000  Ne
  Ne113    1.0000 0.41490  0.60200  0.92904  Biso   1.000  Ne
  He113    1.0000 0.39892  0.62506  0.94966  Biso   1.000  He
  He114    1.0000 0.36826  0.63359  0.93999  Biso   1.000  He
  Ne114    1.0000 0.34408  0.60923  0.95119  Biso   1.000  Ne
  Ne115    1.0000 0.93488  0.57898  0.35692  Biso   1.000  Ne
  He115    1.0000 0.92520  0.57811  0.32752  Biso   1.000  He
  He116    1.0000 0.94765  0.58739  0.30440  Biso   1.000  He
  Ne116    1.0000 0.94220  0.57967  0.27246  Biso   1.000  Ne
  Ne117    1.0000 0.57537  0.40510  0.85636  Biso   1.000  Ne
  He117    1.0000 0.57527  0.42151  0.82819  Biso   1.000  He
  He118    1.0000 0.58598  0.40464  0.79875  Biso   1.000  He
  Ne118    1.0000 0.61652  0.41383  0.78807  Biso   1.000  Ne
  Ne119    1.0000 0.57454  0.74128  0.67461  Biso   1.000  Ne
  He119    1.0000 0.58155  0.77219  0.67790  Biso   1.000  He
  He120    1.0000 0.60467  0.78201  0.70239  Biso   1.000  He
  Ne120    1.0000 0.60876  0.81489  0.70323  Biso   1.000  Ne
  Ne121    1.0000 0.29547  0.84281  0.39213  Biso   1.000  Ne
  He121    1.0000 0.28561  0.87324  0.39989  Biso   1.000  He
  He122    1.0000 0.31091  0.89165  0.41423  Biso   1.000  He
  Ne122    1.0000 0.30264  0.92385  0.42113  Biso   1.000  Ne
  Ne123    1.0000 0.12856  0.40736  0.43242  Biso   1.000  Ne
  He123    1.0000 0.12220  0.37596  0.42214  Biso   1.000  He
  He124    1.0000 0.15289  0.35857  0.41562  Biso   1.000  He
  Ne124    1.0000 0.14858  0.32524  0.41659  Biso   1.000  Ne
  Ne125    1.0000 0.07113  0.94438  0.92739  Biso   1.000  Ne
  He125    1.0000 0.09542  0.93150  0.91198  Biso   1.000  He
  He126    1.0000 0.12587  0.94265  0.91834  Biso   1.000  He
  Ne126    1.0000 0.14955  0.92835  0.90077  Biso   1.000  Ne
  Ne127    1.0000 0.61271  0.10440  0.72320  Biso   1.000  Ne
  He127    1.0000 0.60204  0.11930  0.69632  Biso   1.000  He
  He128    1.0000 0.59249  0.09839  0.67408  Biso   1.000  He
  Ne128    1.0000 0.57557  0.10857  0.64656  Biso   1.000  Ne
  Ne129    1.0000 0.79043  0.85728  0.15437  Biso   1.000  Ne
  He129    1.0000 0.81632  0.87307  0.14303  Biso   1.000  He
  He130    1.0000 0.80726  0.89908  0.12461  Biso   1.000  He
  Ne130    1.0000 0.83299  0.91364  0.11160  Biso   1.000  Ne
  Ne131    1.0000 0.93683  0.90672  0.17626  Biso   1.000  Ne
  He131    1.0000 0.92707  0.88727  0.20198  Biso   1.000  He
  He132    1.0000 0.92512  0.90397  0.23123  Biso   1.000  He
  Ne132    1.0000 0.92207  0.88058  0.25429  Biso   1.000  Ne
  Ne133    1.0000 0.41225  0.80246  0.41880  Biso   1.000  Ne
  He133    1.0000 0.41383  0.83657  0.41635  Biso   1.000  He
  He134    1.0000 0.43210  0.84972  0.44073  Biso   1.000  He
  Ne134    1.0000 0.43207  0.88091  0.44283  Biso   1.000  Ne
  Ne135    1.0000 0.58537  0.86790  0.34148  Biso   1.000  Ne
  He135    1.0000 0.61212  0.88696  0.33346  Biso   1.000  He
  He136    1.0000 0.61512  0.89452  0.29875  Biso   1.000  He
  Ne136    1.0000 0.64575  0.90053  0.28763  Biso   1.000  Ne
  Ne137    1.0000 0.98540  0.70871  0.92150  Biso   1.000  Ne
  He137    1.0000 0.00727  0.70085  0.94665  Biso   1.000  He
  He138    1.0000 0.04023  0.69729  0.93808  Biso   1.000  He
  Ne138    1.0000 0.06063  0.69258  0.96679  Biso   1.000  Ne
  Ne139    1.0000 0.43527  0.39836  0.07175  Biso   1.000  Ne
  He139    1.0000 0.46238  0.41585  0.06444  Biso   1.000  He
  He140    1.0000 0.46391  0.44597  0.07943  Biso   1.000  He
  Ne140    1.0000 0.48990  0.46485  0.07065  Biso   1.000  Ne
  Ne141    1.0000 0.59671  0.29717  0.10953  Biso   1.000  Ne
  He141    1.0000 0.58872  0.33030  0.10874  Biso   1.000  He
  He142    1.0000 0.61225  0.34907  0.09387  Biso   1.000  He
  Ne142    1.0000 0.60452  0.38083  0.09083  Biso   1.000  Ne
  Ne143    1.0000 0.45566  0.07069  0.40418  Biso   1.000  Ne
  He143    1.0000 0.45556  0.10452  0.39538  Biso   1.000  He
  He144    1.0000 0.44094  0.10770  0.36577  Biso   1.000  He
  Ne144    1.0000 0.44608  0.13676  0.35436  Biso   1.000  Ne
  Ne145    1.0000 0.09016  0.55992  0.37009  Biso   1.000  Ne
  He145    1.0000 0.10982  0.58099  0.35558  Biso   1.000  He
  He146    1.0000 0.10676  0.58129  0.32308  Biso   1.000  He
  Ne146    1.0000 0.12771  0.60325  0.30910  Biso   1.000  Ne
  Ne147    1.0000 0.31272  0.92002  0.68001  Biso   1.000  Ne
  He147    1.0000 0.34167  0.90704  0.67203  Biso   1.000  He
  He148    1.0000 0.36824  0.92069  0.68808  Biso   1.000  He
  Ne148    1.0000 0.39715  0.90179  0.68058  Biso   1.000  Ne
  Ne149    1.0000 0.86977  0.64567  0.44112  Biso   1.000  Ne
  He149    1.0000 0.89421  0.66662  0.43269  Biso   1.000  He
  He150    1.0000 0.88749  0.69861  0.44008  Biso   1.000  He
  Ne150    1.0000 0.91135  0.71973  0.43696  Biso   1.000  Ne
  Ne151    1.0000 0.76649  0.42453  0.41943  Biso   1.000  Ne
  He151    1.0000 0.79945  0.42487  0.41671  Biso   1.000  He
  He152    1.0000 0.81075  0.39864  0.40043  Biso   1.000  He
  Ne152    1.0000 0.84269  0.39315  0.39522  Biso   1.000  Ne
  Ne153    1.0000 0.05106  0.41322  0.53904  Biso   1.000  Ne
  He153    1.0000 0.03170  0.43470  0.55344  Biso   1.000  He
  He154    1.0000 0.00350  0.42298  0.56488  Biso   1.000  He
  Ne154    1.0000 0.98369  0.44645  0.57828  Biso   1.000  Ne
  Ne155    1.0000 0.08893  0.10007  0.93806  Biso   1.000  Ne
  He155    1.0000 0.08017  0.10479  0.90752  Biso   1.000  He
  He156    1.0000 0.09629  0.08625  0.88259  Biso   1.000  He
  Ne156    1.0000 0.08514  0.09329  0.85202  Biso   1.000  Ne
  Ne157    1.0000 0.54754  0.03473  0.59586  Biso   1.000  Ne
  He157    1.0000 0.56709  0.00984  0.58242  Biso   1.000  He
  He158    1.0000 0.58249  0.01656  0.55195  Biso   1.000  He
  Ne158    1.0000 0.60570  0.99253  0.54486  Biso   1.000  Ne
  Ne159    1.0000 0.16632  0.58784  0.65237  Biso   1.000  Ne
  He159    1.0000 0.13256  0.58417  0.65603  Biso   1.000  He
  He160    1.0000 0.12310  0.59923  0.68556  Biso   1.000  He
  Ne160    1.0000 0.09340  0.58971  0.69401  Biso   1.000  Ne
  Ne161    1.0000 0.91543  0.95237  0.05456  Biso   1.000  Ne
  He161    1.0000 0.93319  0.92603  0.04292  Biso   1.000  He
  He162    1.0000 0.96817  0.92942  0.04784  Biso   1.000  He
  Ne162    1.0000 0.98749  0.94622  0.02530  Biso   1.000  Ne
  Ne163    1.0000 0.60355  0.01687  0.45689  Biso   1.000  Ne
  He163    1.0000 0.61639  0.04556  0.45112  Biso   1.000  He
  He164    1.0000 0.59292  0.07077  0.45006  Biso   1.000  He
  Ne164    1.0000 0.60532  0.09835  0.43344  Biso   1.000  Ne
  Ne165    1.0000 0.34360  0.07679  0.33864  Biso   1.000  Ne
  He165    1.0000 0.37265  0.08205  0.32568  Biso   1.000  He
  He166    1.0000 0.37121  0.07817  0.29257  Biso   1.000  He
  Ne166    1.0000 0.40359  0.08081  0.27710  Biso   1.000  Ne
  Ne167    1.0000 0.94679  0.05203  0.01770  Biso   1.000  Ne
  He167    1.0000 0.96205  0.03254  0.03503  Biso   1.000  He
  He168    1.0000 0.98446  0.04968  0.05338  Biso   1.000  He
  Ne168    1.0000 0.00140  0.03462  0.07946  Biso   1.000  Ne
  Ne169    1.0000 0.61751  0.75109  0.45238  Biso   1.000  Ne
  He169    1.0000 0.62024  0.78284  0.44150  Biso   1.000  He
  He170    1.0000 0.64987  0.78910  0.42951  Biso   1.000  He
  Ne170    1.0000 0.65560  0.82047  0.42131  Biso   1.000  Ne
  Ne171    1.0000 0.63222  0.31636  0.76046  Biso   1.000  Ne
  He171    1.0000 0.62038  0.29067  0.77826  Biso   1.000  He
  He172    1.0000 0.61661  0.29524  0.81157  Biso   1.000  He
  Ne172    1.0000 0.61114  0.26685  0.82873  Biso   1.000  Ne
  Ne173    1.0000 0.18099  0.41534  0.64977  Biso   1.000  Ne
  He173    1.0000 0.21182  0.41513  0.64126  Biso   1.000  He
  He174    1.0000 0.23340  0.38915  0.64943  Biso   1.000  He
  Ne174    1.0000 0.26569  0.39544  0.63885  Biso   1.000  Ne
  Ne175    1.0000 0.92562  0.55645  0.63760  Biso   1.000  Ne
  He175    1.0000 0.92745  0.57476  0.60862  Biso   1.000  He
  He176    1.0000 0.92787  0.60769  0.61402  Biso   1.000  He
  Ne176    1.0000 0.92489  0.62478  0.58624  Biso   1.000  Ne
  Ne177    1.0000 0.15912  0.92005  0.78939  Biso   1.000  Ne
  He177    1.0000 0.12713  0.92080  0.79623  Biso   1.000  He
  He178    1.0000 0.11821  0.92805  0.82638  Biso   1.000  He
  Ne178    1.0000 0.08352  0.93056  0.82632  Biso   1.000  Ne
  Ne179    1.0000 0.62655  0.42160  0.16772  Biso   1.000  Ne
  He179    1.0000 0.65777  0.41725  0.15399  Biso   1.000  He
  He180    1.0000 0.66647  0.43305  0.12659  Biso   1.000  He
  Ne180    1.0000 0.69840  0.42779  0.11501  Biso   1.000  Ne
  Ne181    1.0000 0.47688  0.34108  0.70178  Biso   1.000  Ne
  He181    1.0000 0.46673  0.31398  0.68386  Biso   1.000  He
  He182    1.0000 0.44328  0.29538  0.69909  Biso   1.000  He
  Ne182    1.0000 0.43048  0.27270  0.67961  Biso   1.000  Ne
  Ne183    1.0000 0.08787  0.22550  0.13636  Biso   1.000  Ne
  He183    1.0000 0.07912  0.19279  0.12820  Biso   1.000  He
  He184    1.0000 0.08662  0.17087  0.15205  Biso   1.000  He
  Ne184    1.0000 0.08032  0.13897  0.14792  Biso   1.000  Ne
  Ne185    1.0000 0.92107  0.76960  0.93143  Biso   1.000  Ne
  He185    1.0000 0.88978  0.75690  0.92909  Biso   1.000  He
  He186    1.0000 0.86392  0.78188  0.92617  Biso   1.000  He
  Ne186    1.0000 0.83348  0.76989  0.92038  Biso   1.000  Ne
  Ne187    1.0000 0.41149  0.57654  0.16464  Biso   1.000  Ne
  He187    1.0000 0.43238  0.58349  0.19076  Biso   1.000  He
  He188    1.0000 0.42153  0.56912  0.21950  Biso   1.000  He
  Ne188    1.0000 0.44071  0.57556  0.24676  Biso   1.000  Ne
  Ne189    1.0000 0.64239  0.23839  0.60853  Biso   1.000  Ne
  He189    1.0000 0.61473  0.22189  0.60913  Biso   1.000  He
  He190    1.0000 0.61469  0.18953  0.61042  Biso   1.000  He
  Ne190    1.0000 0.58606  0.17519  0.60703  Biso   1.000  Ne
  Ne191    1.0000 0.59930  0.60116  0.79884  Biso   1.000  Ne
  He191    1.0000 0.59834  0.57412  0.77865  Biso   1.000  He
  He192    1.0000 0.58304  0.58162  0.74862  Biso   1.000  He
  Ne192    1.0000 0.57400  0.55571  0.73100  Biso   1.000  Ne
  Ne193    1.0000 0.16055  0.16958  0.11591  Biso   1.000  Ne
  He193    1.0000 0.18811  0.16470  0.09706  Biso   1.000  He
  He194    1.0000 0.18920  0.13266  0.08595  Biso   1.000  He
  Ne194    1.0000 0.21990  0.12529  0.07247  Biso   1.000  Ne
  Ne195    1.0000 0.59914  0.59344  0.19270  Biso   1.000  Ne
  He195    1.0000 0.60092  0.62121  0.20544  Biso   1.000  He
  He196    1.0000 0.61577  0.62081  0.23439  Biso   1.000  He
  Ne196    1.0000 0.60570  0.64721  0.25116  Biso   1.000  Ne
  Ne197    1.0000 0.05695  0.05985  0.01827  Biso   1.000  Ne
  He197    1.0000 0.06345  0.03289  0.03345  Biso   1.000  He
  He198    1.0000 0.08919  0.03118  0.05585  Biso   1.000  He
  Ne198    1.0000 0.09057  0.00222  0.06915  Biso   1.000  Ne
  Ne199    1.0000 0.88444  0.10140  0.91648  Biso   1.000  Ne
  He199    1.0000 0.90629  0.08674  0.89550  Biso   1.000  He
  He200    1.0000 0.93671  0.08476  0.91048  Biso   1.000  He
  Ne200    1.0000 0.96142  0.07112  0.89273  Biso   1.000  Ne
