data_image0
_cell_length_a       47.1241
_cell_length_b       46.599
_cell_length_c       46.6266
_cell_angle_alpha    90
_cell_angle_beta     90
_cell_angle_gamma    90

_symmetry_space_group_name_H-M    "P 1"
_symmetry_int_tables_number       1

loop_
  _symmetry_equiv_pos_as_xyz
  'x, y, z'

loop_
  _atom_site_label
  _atom_site_occupancy
  _atom_site_fract_x
  _atom_site_fract_y
  _atom_site_fract_z
  _atom_site_thermal_displace_type
  _atom_site_B_iso_or_equiv
  _atom_site_type_symbol
  Ne1      1.0000 0.37914  0.91476  0.58359  Biso   1.000  Ne
  He1      1.0000 0.35823  0.88807  0.57419  Biso   1.000  He
  He2      1.0000 0.33662  0.87969  0.60058  Biso   1.000  He
  Ne2      1.0000 0.31378  0.85733  0.58997  Biso   1.000  Ne
  Ne3      1.0000 0.89554  0.15498  0.09223  Biso   1.000  Ne
  He3      1.0000 0.88863  0.12952  0.07324  Biso   1.000  He
  He4      1.0000 0.91438  0.11350  0.06473  Biso   1.000  He
  Ne4      1.0000 0.90937  0.08760  0.04597  Biso   1.000  Ne
  Ne5      1.0000 0.94498  0.58068  0.46280  Biso   1.000  Ne
  He5      1.0000 0.93345  0.58295  0.43395  Biso   1.000  He
  He6      1.0000 0.94965  0.56463  0.40983  Biso   1.000  He
  Ne6      1.0000 0.93676  0.56817  0.38020  Biso   1.000  Ne
  Ne7      1.0000 0.40648  0.81474  0.60758  Biso   1.000  Ne
  He7      1.0000 0.39867  0.82546  0.63811  Biso   1.000  He
  He8      1.0000 0.41020  0.85603  0.64211  Biso   1.000  He
  Ne8      1.0000 0.40144  0.87133  0.66740  Biso   1.000  Ne
  Ne9      1.0000 0.36541  0.59570  0.95125  Biso   1.000  Ne
  He9      1.0000 0.34658  0.61113  0.93159  Biso   1.000  He
  He10     1.0000 0.35628  0.61413  0.90029  Biso   1.000  He
  Ne10     1.0000 0.33893  0.63706  0.88569  Biso   1.000  Ne
  Ne11     1.0000 0.40390  0.34218  0.87740  Biso   1.000  Ne
  He11     1.0000 0.39385  0.33687  0.84773  Biso   1.000  He
  He12     1.0000 0.41203  0.34689  0.82250  Biso   1.000  He
  Ne12     1.0000 0.39920  0.34096  0.79494  Biso   1.000  Ne
  Ne13     1.0000 0.16721  0.10552  0.09038  Biso   1.000  Ne
  He13     1.0000 0.15121  0.13565  0.09347  Biso   1.000  He
  He14     1.0000 0.16762  0.16015  0.10744  Biso   1.000  He
  Ne14     1.0000 0.15094  0.18769  0.10980  Biso   1.000  Ne
  Ne15     1.0000 0.15967  0.91603  0.86072  Biso   1.000  Ne
  He15     1.0000 0.12621  0.91553  0.87404  Biso   1.000  He
  He16     1.0000 0.12290  0.92225  0.90635  Biso   1.000  He
  Ne16     1.0000 0.09077  0.92656  0.91879  Biso   1.000  Ne
  Ne17     1.0000 0.55715  0.98522  0.44505  Biso   1.000  Ne
  He17     1.0000 0.55940  0.02049  0.44158  Biso   1.000  He
  He18     1.0000 0.57897  0.03367  0.46439  Biso   1.000  He
  Ne18     1.0000 0.57890  0.06669  0.45974  Biso   1.000  Ne
  Ne19     1.0000 0.31502  0.92605  0.38267  Biso   1.000  Ne
  He19     1.0000 0.34075  0.91325  0.39605  Biso   1.000  He
  He20     1.0000 0.36966  0.92029  0.37862  Biso   1.000  He
  Ne20     1.0000 0.39886  0.91192  0.39099  Biso   1.000  Ne
  Ne21     1.0000 0.91257  0.80205  0.08406  Biso   1.000  Ne
  He21     1.0000 0.88037  0.78928  0.08625  Biso   1.000  He
  He22     1.0000 0.85554  0.81168  0.08047  Biso   1.000  He
  Ne22     1.0000 0.82837  0.79972  0.08798  Biso   1.000  Ne
  Ne23     1.0000 0.58195  0.86280  0.65995  Biso   1.000  Ne
  He23     1.0000 0.59153  0.83855  0.64119  Biso   1.000  He
  He24     1.0000 0.56800  0.82313  0.62299  Biso   1.000  He
  Ne24     1.0000 0.58285  0.80220  0.60043  Biso   1.000  Ne
  Ne25     1.0000 0.57308  0.42771  0.91471  Biso   1.000  Ne
  He25     1.0000 0.55718  0.45690  0.91341  Biso   1.000  He
  He26     1.0000 0.55220  0.47282  0.94194  Biso   1.000  He
  Ne26     1.0000 0.53433  0.49899  0.94221  Biso   1.000  Ne
  Ne27     1.0000 0.66679  0.60293  0.08531  Biso   1.000  Ne
  He27     1.0000 0.63396  0.61073  0.09234  Biso   1.000  He
  He28     1.0000 0.62619  0.60901  0.12297  Biso   1.000  He
  Ne28     1.0000 0.59324  0.61588  0.12667  Biso   1.000  Ne
  Ne29     1.0000 0.64102  0.31307  0.29693  Biso   1.000  Ne
  He29     1.0000 0.65137  0.34171  0.28887  Biso   1.000  He
  He30     1.0000 0.64687  0.34716  0.25589  Biso   1.000  He
  Ne30     1.0000 0.66451  0.37302  0.24141  Biso   1.000  Ne
  Ne31     1.0000 0.64164  0.91215  0.37480  Biso   1.000  Ne
  He31     1.0000 0.66526  0.90764  0.35316  Biso   1.000  He
  He32     1.0000 0.69787  0.89852  0.36551  Biso   1.000  He
  Ne32     1.0000 0.72120  0.89593  0.34396  Biso   1.000  Ne
  Ne33     1.0000 0.80363  0.08146  0.10636  Biso   1.000  Ne
  He33     1.0000 0.81534  0.07769  0.13715  Biso   1.000  He
  He34     1.0000 0.84726  0.07730  0.13463  Biso   1.000  He
  Ne34     1.0000 0.86463  0.07318  0.16461  Biso   1.000  Ne
  Ne35     1.0000 0.90977  0.90262  0.15218  Biso   1.000  Ne
  He35     1.0000 0.91824  0.87484  0.16411  Biso   1.000  He
  He36     1.0000 0.89804  0.86358  0.18555  Biso   1.000  He
  Ne36     1.0000 0.90831  0.83330  0.19813  Biso   1.000  Ne
  Ne37     1.0000 0.84242  0.90480  0.85170  Biso   1.000  Ne
  He37     1.0000 0.86316  0.92220  0.82897  Biso   1.000  He
  He38     1.0000 0.89648  0.92179  0.83144  Biso   1.000  He
  Ne38     1.0000 0.91391  0.94226  0.81362  Biso   1.000  Ne
  Ne39     1.0000 0.56607  0.49199  0.06651  Biso   1.000  Ne
  He39     1.0000 0.57614  0.46603  0.08565  Biso   1.000  He
  He40     1.0000 0.56155  0.43923  0.07657  Biso   1.000  He
  Ne40     1.0000 0.57161  0.41131  0.09476  Biso   1.000  Ne
  Ne41     1.0000 0.35696  0.55665  0.13702  Biso   1.000  Ne
  He41     1.0000 0.36513  0.57135  0.11094  Biso   1.000  He
  He42     1.0000 0.38057  0.60009  0.11616  Biso   1.000  He
  Ne42     1.0000 0.39289  0.61189  0.08910  Biso   1.000  Ne
  Ne43     1.0000 0.82104  0.11029  0.78452  Biso   1.000  Ne
  He43     1.0000 0.82486  0.09874  0.81682  Biso   1.000  He
  He44     1.0000 0.80622  0.11239  0.83974  Biso   1.000  He
  Ne44     1.0000 0.81644  0.09788  0.86939  Biso   1.000  Ne
  Ne45     1.0000 0.57835  0.68815  0.87811  Biso   1.000  Ne
  He45     1.0000 0.57154  0.71047  0.90076  Biso   1.000  He
  He46     1.0000 0.58984  0.71146  0.92557  Biso   1.000  He
  Ne46     1.0000 0.57698  0.73033  0.95074  Biso   1.000  Ne
  Ne47     1.0000 0.14623  0.66257  0.59699  Biso   1.000  Ne
  He47     1.0000 0.12914  0.68713  0.61491  Biso   1.000  He
  He48     1.0000 0.14624  0.71251  0.62547  Biso   1.000  He
  Ne48     1.0000 0.13048  0.73903  0.63790  Biso   1.000  Ne
  Ne49     1.0000 0.92023  0.34145  0.38205  Biso   1.000  Ne
  He49     1.0000 0.88887  0.35031  0.39483  Biso   1.000  He
  He50     1.0000 0.87453  0.32775  0.41448  Biso   1.000  He
  Ne50     1.0000 0.84347  0.33419  0.42447  Biso   1.000  Ne
  Ne51     1.0000 0.86366  0.41109  0.44086  Biso   1.000  Ne
  He51     1.0000 0.88997  0.42461  0.42799  Biso   1.000  He
  He52     1.0000 0.91935  0.41813  0.43879  Biso   1.000  He
  Ne52     1.0000 0.94229  0.42461  0.41641  Biso   1.000  Ne
  Ne53     1.0000 0.05628  0.13725  0.13880  Biso   1.000  Ne
  He53     1.0000 0.05920  0.11167  0.11870  Biso   1.000  He
  He54     1.0000 0.06697  0.11732  0.08768  Biso   1.000  He
  Ne54     1.0000 0.07376  0.08779  0.07070  Biso   1.000  Ne
  Ne55     1.0000 0.92577  0.10040  0.82100  Biso   1.000  Ne
  He55     1.0000 0.91419  0.10197  0.85107  Biso   1.000  He
  He56     1.0000 0.93537  0.09527  0.87619  Biso   1.000  He
  Ne56     1.0000 0.92391  0.09886  0.90548  Biso   1.000  Ne
  Ne57     1.0000 0.12926  0.92007  0.12415  Biso   1.000  Ne
  He57     1.0000 0.15985  0.90663  0.12432  Biso   1.000  He
  He58     1.0000 0.16523  0.88213  0.10189  Biso   1.000  He
  Ne58     1.0000 0.19664  0.86762  0.10163  Biso   1.000  Ne
  Ne59     1.0000 0.65133  0.41521  0.15662  Biso   1.000  Ne
  He59     1.0000 0.64780  0.40492  0.12883  Biso   1.000  He
  He60     1.0000 0.67109  0.41493  0.10530  Biso   1.000  He
  Ne60     1.0000 0.66256  0.40773  0.07411  Biso   1.000  Ne
  Ne61     1.0000 0.91778  0.83937  0.90154  Biso   1.000  Ne
  He61     1.0000 0.92611  0.80781  0.90355  Biso   1.000  He
  He62     1.0000 0.90368  0.78565  0.89937  Biso   1.000  He
  Ne62     1.0000 0.91799  0.75443  0.89451  Biso   1.000  Ne
  Ne63     1.0000 0.12087  0.43552  0.58961  Biso   1.000  Ne
  He63     1.0000 0.08998  0.42704  0.59459  Biso   1.000  He
  He64     1.0000 0.07464  0.41512  0.56676  Biso   1.000  He
  Ne64     1.0000 0.04298  0.41219  0.57337  Biso   1.000  Ne
  Ne65     1.0000 0.88386  0.42538  0.70757  Biso   1.000  Ne
  He65     1.0000 0.89608  0.39420  0.70952  Biso   1.000  He
  He66     1.0000 0.88771  0.37439  0.68466  Biso   1.000  He
  Ne66     1.0000 0.89401  0.34178  0.69012  Biso   1.000  Ne
  Ne67     1.0000 0.57604  0.31054  0.17541  Biso   1.000  Ne
  He67     1.0000 0.58908  0.30007  0.14902  Biso   1.000  He
  He68     1.0000 0.57396  0.31436  0.12115  Biso   1.000  He
  Ne68     1.0000 0.59047  0.30648  0.09258  Biso   1.000  Ne
  Ne69     1.0000 0.34479  0.43124  0.90228  Biso   1.000  Ne
  He69     1.0000 0.32640  0.40380  0.90868  Biso   1.000  He
  He70     1.0000 0.29404  0.40754  0.90119  Biso   1.000  He
  Ne70     1.0000 0.27614  0.38504  0.91226  Biso   1.000  Ne
  Ne71     1.0000 0.82319  0.41342  0.31724  Biso   1.000  Ne
  He71     1.0000 0.85481  0.40856  0.31086  Biso   1.000  He
  He72     1.0000 0.87460  0.42163  0.33509  Biso   1.000  He
  Ne72     1.0000 0.90737  0.41784  0.32759  Biso   1.000  Ne
  Ne73     1.0000 0.07440  0.57183  0.43598  Biso   1.000  Ne
  He73     1.0000 0.08769  0.58405  0.40713  Biso   1.000  He
  He74     1.0000 0.07387  0.56633  0.38093  Biso   1.000  He
  Ne74     1.0000 0.08617  0.57631  0.35255  Biso   1.000  Ne
  Ne75     1.0000 0.56616  0.07858  0.38488  Biso   1.000  Ne
  He75     1.0000 0.58054  0.10915  0.38799  Biso   1.000  He
  He76     1.0000 0.56025  0.13379  0.39714  Biso   1.000  He
  Ne76     1.0000 0.57660  0.16113  0.40441  Biso   1.000  Ne
  Ne77     1.0000 0.90424  0.20021  0.91460  Biso   1.000  Ne
  He77     1.0000 0.87408  0.20671  0.90102  Biso   1.000  He
  He78     1.0000 0.85547  0.17932  0.90135  Biso   1.000  He
  Ne78     1.0000 0.82583  0.18276  0.89380  Biso   1.000  Ne
  Ne79     1.0000 0.62093  0.61425  0.93676  Biso   1.000  Ne
  He79     1.0000 0.63882  0.58810  0.92242  Biso   1.000  He
  He80     1.0000 0.67196  0.59605  0.92323  Biso   1.000  He
  Ne80     1.0000 0.69347  0.57137  0.91566  Biso   1.000  Ne
