data_image0
_cell_length_a       47.5661
_cell_length_b       47.0649
_cell_length_c       46.468
_cell_angle_alpha    90
_cell_angle_beta     90
_cell_angle_gamma    90

_symmetry_space_group_name_H-M    "P 1"
_symmetry_int_tables_number       1

loop_
  _symmetry_equiv_pos_as_xyz
  'x, y, z'

loop_
  _atom_site_label
  _atom_site_occupancy
  _atom_site_fract_x
  _atom_site_fract_y
  _atom_site_fract_z
  _atom_site_thermal_displace_type
  _atom_site_B_iso_or_equiv
  _atom_site_type_symbol
  Ne1      1.0000 0.93149  0.58522  0.74199  Biso   1.000  Ne
  He1      1.0000 0.93321  0.55514  0.72650  Biso   1.000  He
  He2      1.0000 0.93138  0.56009  0.69302  Biso   1.000  He
  Ne2      1.0000 0.93905  0.53457  0.67426  Biso   1.000  Ne
  Ne3      1.0000 0.78989  0.30097  0.44718  Biso   1.000  Ne
  He3      1.0000 0.80924  0.31750  0.42509  Biso   1.000  He
  He4      1.0000 0.83472  0.33070  0.44010  Biso   1.000  He
  Ne4      1.0000 0.85377  0.34897  0.42063  Biso   1.000  Ne
  Ne5      1.0000 0.19455  0.86895  0.88079  Biso   1.000  Ne
  He5      1.0000 0.18061  0.86846  0.85094  Biso   1.000  He
  He6      1.0000 0.19880  0.87947  0.82623  Biso   1.000  He
  Ne6      1.0000 0.18671  0.87495  0.79543  Biso   1.000  Ne
  Ne7      1.0000 0.12538  0.62707  0.58887  Biso   1.000  Ne
  He7      1.0000 0.12370  0.59480  0.59167  Biso   1.000  He
  He8      1.0000 0.14772  0.58041  0.61119  Biso   1.000  He
  Ne8      1.0000 0.15179  0.54795  0.60983  Biso   1.000  Ne
  Ne9      1.0000 0.59895  0.01697  0.66610  Biso   1.000  Ne
  He9      1.0000 0.61535  0.02895  0.69317  Biso   1.000  He
  He10     1.0000 0.61149  0.01143  0.72159  Biso   1.000  He
  Ne10     1.0000 0.63157  0.02303  0.74539  Biso   1.000  Ne
  Ne11     1.0000 0.80514  0.96321  0.53566  Biso   1.000  Ne
  He11     1.0000 0.80622  0.98395  0.56231  Biso   1.000  He
  He12     1.0000 0.81620  0.01614  0.55816  Biso   1.000  He
  Ne12     1.0000 0.81551  0.03419  0.58749  Biso   1.000  Ne
  Ne13     1.0000 0.42832  0.49291  0.95343  Biso   1.000  Ne
  He13     1.0000 0.41541  0.51741  0.93357  Biso   1.000  He
  He14     1.0000 0.38336  0.52686  0.94484  Biso   1.000  He
  Ne14     1.0000 0.36864  0.54699  0.92300  Biso   1.000  Ne
  Ne15     1.0000 0.39504  0.51738  0.09485  Biso   1.000  Ne
  He15     1.0000 0.41284  0.54439  0.10183  Biso   1.000  He
  He16     1.0000 0.44541  0.54124  0.10264  Biso   1.000  He
  Ne16     1.0000 0.46447  0.56985  0.10112  Biso   1.000  Ne
  Ne17     1.0000 0.98521  0.53040  0.50143  Biso   1.000  Ne
  He17     1.0000 0.97882  0.52109  0.46971  Biso   1.000  He
  He18     1.0000 0.94502  0.52748  0.45920  Biso   1.000  He
  Ne18     1.0000 0.93484  0.50912  0.43121  Biso   1.000  Ne
  Ne19     1.0000 0.57234  0.35311  0.06844  Biso   1.000  Ne
  He19     1.0000 0.60070  0.36032  0.08543  Biso   1.000  He
  He20     1.0000 0.59135  0.37769  0.11146  Biso   1.000  He
  Ne20     1.0000 0.61746  0.38541  0.13023  Biso   1.000  Ne
  Ne21     1.0000 0.02398  0.86707  0.01748  Biso   1.000  Ne
  He21     1.0000 0.05783  0.86985  0.02485  Biso   1.000  He
  He22     1.0000 0.06106  0.88149  0.05401  Biso   1.000  He
  Ne22     1.0000 0.09065  0.87906  0.06788  Biso   1.000  Ne
  Ne23     1.0000 0.97842  0.37900  0.51825  Biso   1.000  Ne
  He23     1.0000 0.97973  0.40042  0.49261  Biso   1.000  He
  He24     1.0000 0.00622  0.39753  0.47302  Biso   1.000  He
  Ne24     1.0000 0.00384  0.41627  0.44784  Biso   1.000  Ne
  Ne25     1.0000 0.09821  0.83341  0.95451  Biso   1.000  Ne
  He25     1.0000 0.12494  0.85095  0.96207  Biso   1.000  He
  He26     1.0000 0.15061  0.83119  0.95749  Biso   1.000  He
  Ne26     1.0000 0.18110  0.84451  0.96272  Biso   1.000  Ne
  Ne27     1.0000 0.18486  0.36440  0.59985  Biso   1.000  Ne
  He27     1.0000 0.15752  0.34686  0.60045  Biso   1.000  He
  He28     1.0000 0.16000  0.31664  0.61647  Biso   1.000  He
  Ne28     1.0000 0.13331  0.30111  0.60827  Biso   1.000  Ne
  Ne29     1.0000 0.61279  0.11654  0.44902  Biso   1.000  Ne
  He29     1.0000 0.63667  0.10197  0.43157  Biso   1.000  He
  He30     1.0000 0.64078  0.10937  0.39972  Biso   1.000  He
  Ne30     1.0000 0.66774  0.09416  0.38346  Biso   1.000  Ne
  Ne31     1.0000 0.55958  0.38447  0.93102  Biso   1.000  Ne
  He31     1.0000 0.54955  0.39768  0.95893  Biso   1.000  He
  He32     1.0000 0.51451  0.39710  0.96659  Biso   1.000  He
  Ne32     1.0000 0.50622  0.41115  0.99499  Biso   1.000  Ne
  Ne33     1.0000 0.70147  0.84329  0.60708  Biso   1.000  Ne
  He33     1.0000 0.69807  0.86721  0.63171  Biso   1.000  He
  He34     1.0000 0.69907  0.85119  0.66179  Biso   1.000  He
  Ne34     1.0000 0.69930  0.87166  0.68782  Biso   1.000  Ne
  Ne35     1.0000 0.11533  0.15510  0.82295  Biso   1.000  Ne
  He35     1.0000 0.13983  0.13540  0.82478  Biso   1.000  He
  He36     1.0000 0.15608  0.13799  0.85121  Biso   1.000  He
  Ne36     1.0000 0.18295  0.11937  0.85298  Biso   1.000  Ne
  Ne37     1.0000 0.08761  0.43389  0.53769  Biso   1.000  Ne
  He37     1.0000 0.07574  0.46170  0.55189  Biso   1.000  He
  He38     1.0000 0.09381  0.48686  0.54679  Biso   1.000  He
  Ne38     1.0000 0.07814  0.51237  0.55773  Biso   1.000  Ne
  Ne39     1.0000 0.44664  0.06353  0.25913  Biso   1.000  Ne
  He39     1.0000 0.44427  0.09561  0.26063  Biso   1.000  He
  He40     1.0000 0.45360  0.10641  0.28903  Biso   1.000  He
  Ne40     1.0000 0.44786  0.13854  0.29269  Biso   1.000  Ne
  Ne41     1.0000 0.56140  0.02913  0.55329  Biso   1.000  Ne
  He41     1.0000 0.56578  0.00180  0.57077  Biso   1.000  He
  He42     1.0000 0.54063  0.99737  0.59025  Biso   1.000  He
  Ne42     1.0000 0.54507  0.97103  0.61174  Biso   1.000  Ne
  Ne43     1.0000 0.77339  0.65988  0.45163  Biso   1.000  Ne
  He43     1.0000 0.76254  0.68717  0.43946  Biso   1.000  He
  He44     1.0000 0.78083  0.71387  0.44303  Biso   1.000  He
  Ne44     1.0000 0.76428  0.73836  0.42625  Biso   1.000  Ne
  Ne45     1.0000 0.20963  0.90482  0.35639  Biso   1.000  Ne
  He45     1.0000 0.21800  0.93586  0.36299  Biso   1.000  He
  He46     1.0000 0.19218  0.95810  0.36362  Biso   1.000  He
  Ne46     1.0000 0.20175  0.98554  0.37518  Biso   1.000  Ne
  Ne47     1.0000 0.43505  0.37396  0.11064  Biso   1.000  Ne
  He47     1.0000 0.43157  0.38770  0.07883  Biso   1.000  He
  He48     1.0000 0.43145  0.42127  0.07400  Biso   1.000  He
  Ne48     1.0000 0.42373  0.43003  0.04207  Biso   1.000  Ne
  Ne49     1.0000 0.84802  0.59849  0.42692  Biso   1.000  Ne
  He49     1.0000 0.83768  0.56543  0.42131  Biso   1.000  He
  He50     1.0000 0.84434  0.54606  0.44596  Biso   1.000  He
  Ne50     1.0000 0.83051  0.51749  0.43605  Biso   1.000  Ne
  Ne51     1.0000 0.58484  0.13348  0.17036  Biso   1.000  Ne
  He51     1.0000 0.57600  0.15685  0.15242  Biso   1.000  He
  He52     1.0000 0.60166  0.17163  0.13849  Biso   1.000  He
  Ne52     1.0000 0.59667  0.19653  0.11549  Biso   1.000  Ne
  Ne53     1.0000 0.90225  0.18036  0.37876  Biso   1.000  Ne
  He53     1.0000 0.90008  0.21370  0.38289  Biso   1.000  He
  He54     1.0000 0.92948  0.22702  0.38482  Biso   1.000  He
  Ne54     1.0000 0.92940  0.25874  0.38771  Biso   1.000  Ne
  Ne55     1.0000 0.45341  0.37062  0.92450  Biso   1.000  Ne
  He55     1.0000 0.42334  0.38078  0.92430  Biso   1.000  He
  He56     1.0000 0.40723  0.37154  0.95147  Biso   1.000  He
  Ne56     1.0000 0.37271  0.37422  0.95088  Biso   1.000  Ne
  Ne57     1.0000 0.42457  0.65018  0.96297  Biso   1.000  Ne
  He57     1.0000 0.43364  0.63528  0.93700  Biso   1.000  He
  He58     1.0000 0.41098  0.62909  0.91474  Biso   1.000  He
  Ne58     1.0000 0.42557  0.62278  0.88590  Biso   1.000  Ne
  Ne59     1.0000 0.26909  0.51009  0.33677  Biso   1.000  Ne
  He59     1.0000 0.29302  0.51457  0.35477  Biso   1.000  He
  He60     1.0000 0.28823  0.52319  0.38593  Biso   1.000  He
  Ne60     1.0000 0.31221  0.53473  0.40694  Biso   1.000  Ne
  Ne61     1.0000 0.43000  0.99495  0.55752  Biso   1.000  Ne
  He61     1.0000 0.43969  0.02333  0.57162  Biso   1.000  He
  He62     1.0000 0.41518  0.04645  0.57605  Biso   1.000  He
  Ne62     1.0000 0.42659  0.07276  0.59248  Biso   1.000  Ne
  Ne63     1.0000 0.39519  0.90782  0.22689  Biso   1.000  Ne
  He63     1.0000 0.39859  0.93929  0.22671  Biso   1.000  He
  He64     1.0000 0.36991  0.95522  0.22891  Biso   1.000  He
  Ne64     1.0000 0.37329  0.99041  0.23124  Biso   1.000  Ne
  Ne65     1.0000 0.12184  0.40264  0.43526  Biso   1.000  Ne
  He65     1.0000 0.12143  0.37165  0.42318  Biso   1.000  He
  He66     1.0000 0.08972  0.36161  0.41340  Biso   1.000  He
  Ne66     1.0000 0.08823  0.32873  0.40785  Biso   1.000  Ne
  Ne67     1.0000 0.81428  0.37133  0.33387  Biso   1.000  Ne
  He67     1.0000 0.78168  0.36435  0.32455  Biso   1.000  He
  He68     1.0000 0.76952  0.33341  0.33510  Biso   1.000  He
  Ne68     1.0000 0.73899  0.33116  0.32527  Biso   1.000  Ne
  Ne69     1.0000 0.85545  0.55971  0.33170  Biso   1.000  Ne
  He69     1.0000 0.88860  0.56108  0.33594  Biso   1.000  He
  He70     1.0000 0.90681  0.53707  0.32409  Biso   1.000  He
  Ne70     1.0000 0.93763  0.53361  0.33932  Biso   1.000  Ne
  Ne71     1.0000 0.60272  0.56154  0.12942  Biso   1.000  Ne
  He71     1.0000 0.60123  0.56287  0.16291  Biso   1.000  He
  He72     1.0000 0.59427  0.53761  0.17827  Biso   1.000  He
  Ne72     1.0000 0.58981  0.54072  0.21318  Biso   1.000  Ne
  Ne73     1.0000 0.83224  0.04108  0.85809  Biso   1.000  Ne
  He73     1.0000 0.83227  0.04513  0.88912  Biso   1.000  He
  He74     1.0000 0.80161  0.04910  0.90288  Biso   1.000  He
  Ne74     1.0000 0.80268  0.05141  0.93677  Biso   1.000  Ne
  Ne75     1.0000 0.89157  0.04470  0.95506  Biso   1.000  Ne
  He75     1.0000 0.91517  0.02399  0.95959  Biso   1.000  He
  He76     1.0000 0.93098  0.01573  0.93185  Biso   1.000  He
  Ne76     1.0000 0.95756  0.99614  0.94028  Biso   1.000  Ne
  Ne77     1.0000 0.90863  0.63341  0.34817  Biso   1.000  Ne
  He77     1.0000 0.91531  0.64046  0.38025  Biso   1.000  He
  He78     1.0000 0.91849  0.61398  0.40142  Biso   1.000  He
  Ne78     1.0000 0.92939  0.62305  0.43053  Biso   1.000  Ne
  Ne79     1.0000 0.42190  0.77972  0.34132  Biso   1.000  Ne
  He79     1.0000 0.42829  0.78298  0.37574  Biso   1.000  He
  He80     1.0000 0.40177  0.78027  0.39687  Biso   1.000  He
  Ne80     1.0000 0.40752  0.78626  0.42671  Biso   1.000  Ne
  Ne81     1.0000 0.93738  0.37605  0.69096  Biso   1.000  Ne
  He81     1.0000 0.93617  0.35419  0.71681  Biso   1.000  He
  He82     1.0000 0.93638  0.32528  0.70429  Biso   1.000  He
  Ne82     1.0000 0.93887  0.30313  0.72841  Biso   1.000  Ne
  Ne83     1.0000 0.13797  0.22015  0.43448  Biso   1.000  Ne
  He83     1.0000 0.14412  0.25206  0.42677  Biso   1.000  He
  He84     1.0000 0.15156  0.27219  0.45315  Biso   1.000  He
  Ne84     1.0000 0.15813  0.30299  0.44358  Biso   1.000  Ne
  Ne85     1.0000 0.07533  0.81035  0.11695  Biso   1.000  Ne
  He85     1.0000 0.09748  0.78645  0.13439  Biso   1.000  He
  He86     1.0000 0.08226  0.76013  0.14325  Biso   1.000  He
  Ne86     1.0000 0.10157  0.73928  0.16017  Biso   1.000  Ne
  Ne87     1.0000 0.91554  0.33324  0.61935  Biso   1.000  Ne
  He87     1.0000 0.92653  0.35470  0.59691  Biso   1.000  He
  He88     1.0000 0.91090  0.38362  0.60528  Biso   1.000  He
  Ne88     1.0000 0.92707  0.41024  0.59107  Biso   1.000  Ne
  Ne89     1.0000 0.23219  0.28092  0.61899  Biso   1.000  Ne
  He89     1.0000 0.22125  0.25060  0.62785  Biso   1.000  He
  He90     1.0000 0.24166  0.23477  0.65030  Biso   1.000  He
  Ne90     1.0000 0.22956  0.20868  0.66062  Biso   1.000  Ne
  Ne91     1.0000 0.35097  0.09847  0.62052  Biso   1.000  Ne
  He91     1.0000 0.33447  0.07374  0.61540  Biso   1.000  He
  He92     1.0000 0.31977  0.05735  0.64122  Biso   1.000  He
  Ne92     1.0000 0.30425  0.02799  0.63059  Biso   1.000  Ne
  Ne93     1.0000 0.49655  0.88365  0.45887  Biso   1.000  Ne
  He93     1.0000 0.47390  0.90557  0.46317  Biso   1.000  He
  He94     1.0000 0.48087  0.93350  0.44466  Biso   1.000  He
  Ne94     1.0000 0.46078  0.95914  0.44564  Biso   1.000  Ne
  Ne95     1.0000 0.60856  0.02723  0.27528  Biso   1.000  Ne
  He95     1.0000 0.60452  0.04976  0.29600  Biso   1.000  He
  He96     1.0000 0.59932  0.04263  0.32829  Biso   1.000  He
  Ne96     1.0000 0.59723  0.06978  0.34575  Biso   1.000  Ne
  Ne97     1.0000 0.46794  0.87909  0.55243  Biso   1.000  Ne
  He97     1.0000 0.48024  0.89846  0.57629  Biso   1.000  He
  He98     1.0000 0.46330  0.92332  0.58584  Biso   1.000  He
  Ne98     1.0000 0.47540  0.94037  0.61138  Biso   1.000  Ne
  Ne99     1.0000 0.82863  0.86411  0.85556  Biso   1.000  Ne
  He99     1.0000 0.81669  0.87600  0.88325  Biso   1.000  He
  He100    1.0000 0.83843  0.88645  0.90153  Biso   1.000  He
  Ne100    1.0000 0.84889  0.86653  0.92892  Biso   1.000  Ne
  Ne101    1.0000 0.43005  0.20887  0.14138  Biso   1.000  Ne
  He101    1.0000 0.42566  0.24187  0.14945  Biso   1.000  He
  He102    1.0000 0.44515  0.26050  0.13428  Biso   1.000  He
  Ne102    1.0000 0.44277  0.29154  0.14251  Biso   1.000  Ne
  Ne103    1.0000 0.90427  0.72011  0.32658  Biso   1.000  Ne
  He103    1.0000 0.93628  0.72281  0.31368  Biso   1.000  He
  He104    1.0000 0.94108  0.75409  0.30073  Biso   1.000  He
  Ne104    1.0000 0.95130  0.77632  0.32304  Biso   1.000  Ne
  Ne105    1.0000 0.48104  0.62252  0.35743  Biso   1.000  Ne
  He105    1.0000 0.49502  0.65135  0.35279  Biso   1.000  He
  He106    1.0000 0.52838  0.65116  0.35287  Biso   1.000  He
  Ne106    1.0000 0.54419  0.68000  0.34865  Biso   1.000  Ne
  Ne107    1.0000 0.60105  0.79877  0.44819  Biso   1.000  Ne
  He107    1.0000 0.63036  0.78683  0.44870  Biso   1.000  He
  He108    1.0000 0.65763  0.80685  0.44444  Biso   1.000  He
  Ne108    1.0000 0.68786  0.79246  0.44372  Biso   1.000  Ne
  Ne109    1.0000 0.57851  0.50264  0.06002  Biso   1.000  Ne
  He109    1.0000 0.56529  0.49758  0.08885  Biso   1.000  He
  He110    1.0000 0.53146  0.49031  0.08575  Biso   1.000  He
  Ne110    1.0000 0.51586  0.49213  0.11414  Biso   1.000  Ne
  Ne111    1.0000 0.96422  0.90108  0.91438  Biso   1.000  Ne
  He111    1.0000 0.96366  0.87207  0.93361  Biso   1.000  He
  He112    1.0000 0.93260  0.85918  0.94090  Biso   1.000  He
  Ne112    1.0000 0.91326  0.87389  0.96514  Biso   1.000  Ne
  Ne113    1.0000 0.62145  0.58015  0.81863  Biso   1.000  Ne
  He113    1.0000 0.61020  0.56452  0.84981  Biso   1.000  He
  He114    1.0000 0.59755  0.53354  0.84456  Biso   1.000  He
  Ne114    1.0000 0.58793  0.52063  0.87459  Biso   1.000  Ne
  Ne115    1.0000 0.94983  0.98261  0.02994  Biso   1.000  Ne
  He115    1.0000 0.97845  0.99854  0.03705  Biso   1.000  He
  He116    1.0000 0.99615  0.01481  0.01444  Biso   1.000  He
  Ne116    1.0000 0.02565  0.02039  0.02812  Biso   1.000  Ne
  Ne117    1.0000 0.94088  0.84639  0.78183  Biso   1.000  Ne
  He117    1.0000 0.94237  0.86084  0.81472  Biso   1.000  He
  He118    1.0000 0.91193  0.87402  0.82828  Biso   1.000  He
  Ne118    1.0000 0.91578  0.88675  0.85772  Biso   1.000  Ne
  Ne119    1.0000 0.83708  0.99561  0.72844  Biso   1.000  Ne
  He119    1.0000 0.81109  0.00772  0.71056  Biso   1.000  He
  He120    1.0000 0.81844  0.02872  0.68675  Biso   1.000  He
  Ne120    1.0000 0.79221  0.04257  0.67636  Biso   1.000  Ne
  Ne121    1.0000 0.40604  0.87499  0.70347  Biso   1.000  Ne
  He121    1.0000 0.40500  0.86826  0.67154  Biso   1.000  He
  He122    1.0000 0.38865  0.88845  0.64882  Biso   1.000  He
  Ne122    1.0000 0.39735  0.88324  0.61751  Biso   1.000  Ne
  Ne123    1.0000 0.09006  0.65133  0.42732  Biso   1.000  Ne
  He123    1.0000 0.08858  0.62068  0.41661  Biso   1.000  He
  He124    1.0000 0.08613  0.59634  0.44010  Biso   1.000  He
  Ne124    1.0000 0.08969  0.56803  0.42388  Biso   1.000  Ne
  Ne125    1.0000 0.18476  0.71477  0.98266  Biso   1.000  Ne
  He125    1.0000 0.15613  0.71445  0.96918  Biso   1.000  He
  He126    1.0000 0.15846  0.69888  0.93895  Biso   1.000  He
  Ne126    1.0000 0.12939  0.69301  0.92279  Biso   1.000  Ne
  Ne127    1.0000 0.71483  0.91907  0.90387  Biso   1.000  Ne
  He127    1.0000 0.72371  0.91998  0.87445  Biso   1.000  He
  He128    1.0000 0.70053  0.90906  0.85084  Biso   1.000  He
  Ne128    1.0000 0.71583  0.90847  0.82151  Biso   1.000  Ne
  Ne129    1.0000 0.79712  0.00776  0.10414  Biso   1.000  Ne
  He129    1.0000 0.82416  0.01997  0.12108  Biso   1.000  He
  He130    1.0000 0.82731  0.01207  0.15428  Biso   1.000  He
  Ne130    1.0000 0.85687  0.02180  0.16681  Biso   1.000  Ne
  Ne131    1.0000 0.70275  0.07180  0.86084  Biso   1.000  Ne
  He131    1.0000 0.68929  0.06013  0.83257  Biso   1.000  He
  He132    1.0000 0.71419  0.05383  0.80944  Biso   1.000  He
  Ne132    1.0000 0.70577  0.03929  0.77987  Biso   1.000  Ne
  Ne133    1.0000 0.17880  0.52577  0.32328  Biso   1.000  Ne
  He133    1.0000 0.17926  0.53445  0.35586  Biso   1.000  He
  He134    1.0000 0.20476  0.54365  0.36824  Biso   1.000  He
  Ne134    1.0000 0.20119  0.56079  0.39829  Biso   1.000  Ne
  Ne135    1.0000 0.94813  0.05276  0.83857  Biso   1.000  Ne
  He135    1.0000 0.92828  0.07991  0.83508  Biso   1.000  He
  He136    1.0000 0.94643  0.10787  0.83908  Biso   1.000  He
  Ne136    1.0000 0.92734  0.13686  0.83486  Biso   1.000  Ne
  Ne137    1.0000 0.21141  0.84762  0.18824  Biso   1.000  Ne
  He137    1.0000 0.20612  0.86661  0.16233  Biso   1.000  He
  He138    1.0000 0.17580  0.86017  0.14759  Biso   1.000  He
  Ne138    1.0000 0.17825  0.86679  0.11543  Biso   1.000  Ne
  Ne139    1.0000 0.32069  0.82246  0.34884  Biso   1.000  Ne
  He139    1.0000 0.30312  0.84933  0.36255  Biso   1.000  He
  He140    1.0000 0.31623  0.87869  0.35681  Biso   1.000  He
  Ne140    1.0000 0.29526  0.90376  0.36871  Biso   1.000  Ne
  Ne141    1.0000 0.62550  0.71687  0.10965  Biso   1.000  Ne
  He141    1.0000 0.62558  0.68375  0.11313  Biso   1.000  He
  He142    1.0000 0.60703  0.67331  0.13795  Biso   1.000  He
  Ne142    1.0000 0.60694  0.64229  0.14617  Biso   1.000  Ne
  Ne143    1.0000 0.66037  0.11263  0.61177  Biso   1.000  Ne
  He143    1.0000 0.65804  0.08017  0.61158  Biso   1.000  He
  He144    1.0000 0.68603  0.06472  0.61369  Biso   1.000  He
  Ne144    1.0000 0.68422  0.03015  0.60769  Biso   1.000  Ne
  Ne145    1.0000 0.61945  0.87334  0.31098  Biso   1.000  Ne
  He145    1.0000 0.59430  0.85359  0.31936  Biso   1.000  He
  He146    1.0000 0.60353  0.83063  0.34328  Biso   1.000  He
  Ne146    1.0000 0.57990  0.80980  0.35001  Biso   1.000  Ne
  Ne147    1.0000 0.11066  0.04753  0.89044  Biso   1.000  Ne
  He147    1.0000 0.13893  0.05255  0.90336  Biso   1.000  He
  He148    1.0000 0.16466  0.03598  0.89570  Biso   1.000  He
  Ne148    1.0000 0.18779  0.03933  0.91726  Biso   1.000  Ne
  Ne149    1.0000 0.84150  0.53378  0.66806  Biso   1.000  Ne
  He149    1.0000 0.83685  0.53798  0.63554  Biso   1.000  He
  He150    1.0000 0.80364  0.53346  0.62909  Biso   1.000  He
  Ne150    1.0000 0.79253  0.53468  0.59716  Biso   1.000  Ne
  Ne151    1.0000 0.93521  0.05495  0.09790  Biso   1.000  Ne
  He151    1.0000 0.91964  0.08224  0.09104  Biso   1.000  He
  He152    1.0000 0.89421  0.08275  0.11043  Biso   1.000  He
  Ne152    1.0000 0.87537  0.11227  0.10900  Biso   1.000  Ne
  Ne153    1.0000 0.10244  0.30176  0.71737  Biso   1.000  Ne
  He153    1.0000 0.11860  0.30632  0.74694  Biso   1.000  He
  He154    1.0000 0.14513  0.28574  0.75333  Biso   1.000  He
  Ne154    1.0000 0.15868  0.29399  0.78085  Biso   1.000  Ne
  Ne155    1.0000 0.08051  0.07549  0.23013  Biso   1.000  Ne
  He155    1.0000 0.08521  0.10029  0.20653  Biso   1.000  He
  He156    1.0000 0.08513  0.08685  0.17760  Biso   1.000  He
  Ne156    1.0000 0.09508  0.10615  0.15318  Biso   1.000  Ne
  Ne157    1.0000 0.41034  0.02259  0.38022  Biso   1.000  Ne
  He157    1.0000 0.43551  0.02905  0.39951  Biso   1.000  He
  He158    1.0000 0.42955  0.04462  0.42862  Biso   1.000  He
  Ne158    1.0000 0.45504  0.05920  0.44217  Biso   1.000  Ne
  Ne159    1.0000 0.42285  0.78390  0.60344  Biso   1.000  Ne
  He159    1.0000 0.42574  0.75210  0.59537  Biso   1.000  He
  He160    1.0000 0.40258  0.73499  0.60964  Biso   1.000  He
  Ne160    1.0000 0.40622  0.70342  0.60552  Biso   1.000  Ne
  Ne161    1.0000 0.37073  0.27368  0.10009  Biso   1.000  Ne
  He161    1.0000 0.36875  0.30343  0.11577  Biso   1.000  He
  He162    1.0000 0.33716  0.31624  0.11355  Biso   1.000  He
  Ne162    1.0000 0.33094  0.34651  0.12597  Biso   1.000  Ne
  Ne163    1.0000 0.92858  0.60361  0.61759  Biso   1.000  Ne
  He163    1.0000 0.92953  0.57165  0.60206  Biso   1.000  He
  He164    1.0000 0.90117  0.56077  0.59042  Biso   1.000  He
  Ne164    1.0000 0.90360  0.52854  0.57968  Biso   1.000  Ne
  Ne165    1.0000 0.90172  0.37483  0.32552  Biso   1.000  Ne
  He165    1.0000 0.91678  0.36850  0.35346  Biso   1.000  He
  He166    1.0000 0.93099  0.33938  0.35463  Biso   1.000  He
  Ne166    1.0000 0.94422  0.33184  0.38687  Biso   1.000  Ne
  Ne167    1.0000 0.09421  0.36472  0.64743  Biso   1.000  Ne
  He167    1.0000 0.07825  0.38006  0.62231  Biso   1.000  He
  He168    1.0000 0.07147  0.36233  0.59550  Biso   1.000  He
  Ne168    1.0000 0.05732  0.38057  0.57134  Biso   1.000  Ne
  Ne169    1.0000 0.45870  0.67768  0.69819  Biso   1.000  Ne
  He169    1.0000 0.44833  0.65047  0.71131  Biso   1.000  He
  He170    1.0000 0.46948  0.63468  0.73139  Biso   1.000  He
  Ne170    1.0000 0.45792  0.60645  0.74378  Biso   1.000  Ne
  Ne171    1.0000 0.61455  0.86646  0.65881  Biso   1.000  Ne
  He171    1.0000 0.60874  0.87376  0.62429  Biso   1.000  He
  He172    1.0000 0.57876  0.88510  0.61687  Biso   1.000  He
  Ne172    1.0000 0.55816  0.86140  0.60596  Biso   1.000  Ne
  Ne173    1.0000 0.13438  0.52799  0.69510  Biso   1.000  Ne
  He173    1.0000 0.11018  0.53558  0.71592  Biso   1.000  He
  He174    1.0000 0.11945  0.55696  0.74048  Biso   1.000  He
  Ne174    1.0000 0.09454  0.56714  0.75990  Biso   1.000  Ne
  Ne175    1.0000 0.96062  0.84765  0.05624  Biso   1.000  Ne
  He175    1.0000 0.95429  0.87049  0.08130  Biso   1.000  He
  He176    1.0000 0.97301  0.89687  0.07848  Biso   1.000  He
  Ne176    1.0000 0.96910  0.92137  0.09942  Biso   1.000  Ne
  Ne177    1.0000 0.67321  0.54288  0.95446  Biso   1.000  Ne
  He177    1.0000 0.64452  0.52726  0.96280  Biso   1.000  He
  He178    1.0000 0.61899  0.54805  0.96710  Biso   1.000  He
  Ne178    1.0000 0.58871  0.53073  0.96838  Biso   1.000  Ne
  Ne179    1.0000 0.13084  0.79011  0.88575  Biso   1.000  Ne
  He179    1.0000 0.11634  0.80862  0.86054  Biso   1.000  He
  He180    1.0000 0.13097  0.79885  0.83254  Biso   1.000  He
  Ne180    1.0000 0.11203  0.80760  0.80580  Biso   1.000  Ne
  Ne181    1.0000 0.11261  0.20023  0.74082  Biso   1.000  Ne
  He181    1.0000 0.11024  0.21111  0.70936  Biso   1.000  He
  He182    1.0000 0.08056  0.21185  0.69650  Biso   1.000  He
  Ne182    1.0000 0.08458  0.22024  0.66557  Biso   1.000  Ne
  Ne183    1.0000 0.61466  0.29916  0.93591  Biso   1.000  Ne
  He183    1.0000 0.62072  0.32939  0.94860  Biso   1.000  He
  He184    1.0000 0.62833  0.35025  0.92737  Biso   1.000  He
  Ne184    1.0000 0.63747  0.37837  0.94120  Biso   1.000  Ne
  Ne185    1.0000 0.14813  0.02078  0.11204  Biso   1.000  Ne
  He185    1.0000 0.11504  0.01317  0.11535  Biso   1.000  He
  He186    1.0000 0.09342  0.03243  0.10237  Biso   1.000  He
  Ne186    1.0000 0.06134  0.02642  0.10882  Biso   1.000  Ne
  Ne187    1.0000 0.09142  0.85452  0.19685  Biso   1.000  Ne
  He187    1.0000 0.10442  0.85270  0.22482  Biso   1.000  He
  He188    1.0000 0.11271  0.88106  0.23884  Biso   1.000  He
  Ne188    1.0000 0.12498  0.87626  0.26967  Biso   1.000  Ne
  Ne189    1.0000 0.42927  0.04217  0.68786  Biso   1.000  Ne
  He189    1.0000 0.43850  0.06441  0.71024  Biso   1.000  He
  He190    1.0000 0.41868  0.09060  0.71125  Biso   1.000  He
  Ne190    1.0000 0.42439  0.11042  0.73360  Biso   1.000  Ne
  Ne191    1.0000 0.61658  0.76519  0.64814  Biso   1.000  Ne
  He191    1.0000 0.59397  0.75336  0.62656  Biso   1.000  He
  He192    1.0000 0.59511  0.71873  0.62363  Biso   1.000  He
  Ne192    1.0000 0.57101  0.70982  0.60347  Biso   1.000  Ne
  Ne193    1.0000 0.30446  0.81844  0.43514  Biso   1.000  Ne
  He193    1.0000 0.33513  0.82665  0.43527  Biso   1.000  He
  He194    1.0000 0.34217  0.85735  0.43667  Biso   1.000  He
  Ne194    1.0000 0.37298  0.86570  0.43105  Biso   1.000  Ne
  Ne195    1.0000 0.39075  0.88097  0.31034  Biso   1.000  Ne
  He195    1.0000 0.41248  0.86325  0.32931  Biso   1.000  He
  He196    1.0000 0.41832  0.87900  0.35948  Biso   1.000  He
  Ne196    1.0000 0.43811  0.86277  0.37862  Biso   1.000  Ne
  Ne197    1.0000 0.54619  0.01491  0.44514  Biso   1.000  Ne
  He197    1.0000 0.53992  0.99883  0.47664  Biso   1.000  He
  He198    1.0000 0.51199  0.00998  0.49216  Biso   1.000  He
  Ne198    1.0000 0.50238  0.98955  0.51576  Biso   1.000  Ne
  Ne199    1.0000 0.20283  0.15809  0.74708  Biso   1.000  Ne
  He199    1.0000 0.21848  0.12846  0.74204  Biso   1.000  He
  He200    1.0000 0.25219  0.12712  0.75109  Biso   1.000  He
  Ne200    1.0000 0.26686  0.09737  0.74561  Biso   1.000  Ne
  Ne201    1.0000 0.64508  0.30188  0.11384  Biso   1.000  Ne
  He201    1.0000 0.66387  0.27822  0.09981  Biso   1.000  He
  He202    1.0000 0.65857  0.24815  0.11425  Biso   1.000  He
  Ne202    1.0000 0.67678  0.22596  0.09992  Biso   1.000  Ne
  Ne203    1.0000 0.04414  0.73427  0.49748  Biso   1.000  Ne
  He203    1.0000 0.04026  0.73691  0.46476  Biso   1.000  He
  He204    1.0000 0.02284  0.76211  0.45548  Biso   1.000  He
  Ne204    1.0000 0.02365  0.76862  0.42225  Biso   1.000  Ne
  Ne205    1.0000 0.41616  0.55004  0.22083  Biso   1.000  Ne
  He205    1.0000 0.38311  0.55264  0.21270  Biso   1.000  He
  He206    1.0000 0.36639  0.52044  0.20954  Biso   1.000  He
  Ne206    1.0000 0.33472  0.52504  0.19590  Biso   1.000  Ne
  Ne207    1.0000 0.93143  0.75270  0.92667  Biso   1.000  Ne
  He207    1.0000 0.90721  0.77709  0.92806  Biso   1.000  He
  He208    1.0000 0.87480  0.76838  0.92733  Biso   1.000  He
  Ne208    1.0000 0.85589  0.79183  0.93818  Biso   1.000  Ne
  Ne209    1.0000 0.78230  0.84574  0.67701  Biso   1.000  Ne
  He209    1.0000 0.77885  0.87397  0.65880  Biso   1.000  He
  He210    1.0000 0.80646  0.88290  0.64413  Biso   1.000  He
  Ne210    1.0000 0.80090  0.91299  0.62486  Biso   1.000  Ne
  Ne211    1.0000 0.42584  0.51748  0.83120  Biso   1.000  Ne
  He211    1.0000 0.40750  0.54112  0.84501  Biso   1.000  He
  He212    1.0000 0.39789  0.56072  0.82186  Biso   1.000  He
  Ne212    1.0000 0.37942  0.58766  0.83238  Biso   1.000  Ne
  Ne213    1.0000 0.95424  0.09689  0.74139  Biso   1.000  Ne
  He213    1.0000 0.98490  0.09060  0.72717  Biso   1.000  He
  He214    1.0000 0.00260  0.11656  0.71828  Biso   1.000  He
  Ne214    1.0000 0.02586  0.10727  0.69862  Biso   1.000  Ne
  Ne215    1.0000 0.25142  0.66768  0.92032  Biso   1.000  Ne
  He215    1.0000 0.28235  0.65861  0.92801  Biso   1.000  He
  He216    1.0000 0.28684  0.63855  0.95340  Biso   1.000  He
  Ne216    1.0000 0.31763  0.62587  0.95789  Biso   1.000  Ne
  Ne217    1.0000 0.93417  0.85637  0.15939  Biso   1.000  Ne
  He217    1.0000 0.93000  0.86841  0.18914  Biso   1.000  He
  He218    1.0000 0.89958  0.86363  0.20025  Biso   1.000  He
  Ne218    1.0000 0.89436  0.87301  0.23165  Biso   1.000  Ne
  Ne219    1.0000 0.59167  0.19143  0.62530  Biso   1.000  Ne
  He219    1.0000 0.62310  0.20019  0.63092  Biso   1.000  He
  He220    1.0000 0.62490  0.21614  0.65934  Biso   1.000  He
  Ne220    1.0000 0.65494  0.22100  0.66801  Biso   1.000  Ne
