data_image0
_cell_length_a       46.5649
_cell_length_b       46.6804
_cell_length_c       46.5529
_cell_angle_alpha    90
_cell_angle_beta     90
_cell_angle_gamma    90

_symmetry_space_group_name_H-M    "P 1"
_symmetry_int_tables_number       1

loop_
  _symmetry_equiv_pos_as_xyz
  'x, y, z'

loop_
  _atom_site_label
  _atom_site_occupancy
  _atom_site_fract_x
  _atom_site_fract_y
  _atom_site_fract_z
  _atom_site_thermal_displace_type
  _atom_site_B_iso_or_equiv
  _atom_site_type_symbol
  Ne1      1.0000 0.61800  0.55963  0.11603  Biso   1.000  Ne
  He1      1.0000 0.62131  0.56321  0.08387  Biso   1.000  He
  He2      1.0000 0.59570  0.57994  0.07081  Biso   1.000  He
  Ne2      1.0000 0.60227  0.61292  0.06513  Biso   1.000  Ne
  Ne3      1.0000 0.12197  0.63198  0.60423  Biso   1.000  Ne
  He3      1.0000 0.15399  0.63510  0.60272  Biso   1.000  He
  He4      1.0000 0.16469  0.66485  0.60938  Biso   1.000  He
  Ne4      1.0000 0.19783  0.66607  0.60631  Biso   1.000  Ne
  Ne5      1.0000 0.71435  0.89469  0.70185  Biso   1.000  Ne
  He5      1.0000 0.72322  0.89373  0.67093  Biso   1.000  He
  He6      1.0000 0.70205  0.89352  0.64757  Biso   1.000  He
  Ne6      1.0000 0.71883  0.89641  0.61739  Biso   1.000  Ne
  Ne7      1.0000 0.07093  0.92830  0.25061  Biso   1.000  Ne
  He7      1.0000 0.07456  0.90159  0.23242  Biso   1.000  He
  He8      1.0000 0.09076  0.90449  0.20537  Biso   1.000  He
  Ne8      1.0000 0.09921  0.87295  0.19534  Biso   1.000  Ne
  Ne9      1.0000 0.94899  0.08472  0.81309  Biso   1.000  Ne
  He9      1.0000 0.94251  0.11553  0.82249  Biso   1.000  He
  He10     1.0000 0.93891  0.11496  0.85446  Biso   1.000  He
  Ne10     1.0000 0.93021  0.14422  0.87125  Biso   1.000  Ne
  Ne11     1.0000 0.10062  0.55442  0.48418  Biso   1.000  Ne
  He11     1.0000 0.07749  0.54411  0.46414  Biso   1.000  He
  He12     1.0000 0.06998  0.51218  0.46337  Biso   1.000  He
  Ne12     1.0000 0.04651  0.50421  0.44039  Biso   1.000  Ne
  Ne13     1.0000 0.87287  0.57309  0.34692  Biso   1.000  Ne
  He13     1.0000 0.86745  0.58390  0.38002  Biso   1.000  He
  He14     1.0000 0.87262  0.55889  0.40050  Biso   1.000  He
  Ne14     1.0000 0.87131  0.56768  0.43333  Biso   1.000  Ne
  Ne15     1.0000 0.60244  0.86380  0.58602  Biso   1.000  Ne
  He15     1.0000 0.59492  0.89415  0.57328  Biso   1.000  He
  He16     1.0000 0.59299  0.92121  0.59381  Biso   1.000  He
  Ne16     1.0000 0.59655  0.95077  0.57738  Biso   1.000  Ne
  Ne17     1.0000 0.89794  0.90852  0.12087  Biso   1.000  Ne
  He17     1.0000 0.88588  0.90238  0.14844  Biso   1.000  He
  He18     1.0000 0.85233  0.90057  0.14685  Biso   1.000  He
  Ne18     1.0000 0.84222  0.88964  0.17551  Biso   1.000  Ne
  Ne19     1.0000 0.45217  0.08087  0.75516  Biso   1.000  Ne
  He19     1.0000 0.44906  0.05895  0.72814  Biso   1.000  He
  He20     1.0000 0.43876  0.07355  0.69800  Biso   1.000  He
  Ne20     1.0000 0.43413  0.05006  0.67333  Biso   1.000  Ne
  Ne21     1.0000 0.61001  0.71059  0.08324  Biso   1.000  Ne
  He21     1.0000 0.59978  0.70323  0.11461  Biso   1.000  He
  He22     1.0000 0.60680  0.67149  0.11901  Biso   1.000  He
  Ne22     1.0000 0.60293  0.65940  0.15136  Biso   1.000  Ne
  Ne23     1.0000 0.48073  0.50431  0.93573  Biso   1.000  Ne
  He23     1.0000 0.50697  0.52724  0.93708  Biso   1.000  He
  He24     1.0000 0.53632  0.51230  0.94176  Biso   1.000  He
  Ne24     1.0000 0.56325  0.53272  0.94590  Biso   1.000  Ne
  Ne25     1.0000 0.96351  0.43680  0.41966  Biso   1.000  Ne
  He25     1.0000 0.97737  0.43889  0.44997  Biso   1.000  He
  He26     1.0000 0.00813  0.42420  0.45464  Biso   1.000  He
  Ne26     1.0000 0.02041  0.42875  0.48504  Biso   1.000  Ne
  Ne27     1.0000 0.10674  0.93531  0.95874  Biso   1.000  Ne
  He27     1.0000 0.08816  0.90457  0.95356  Biso   1.000  He
  He28     1.0000 0.06041  0.89991  0.97151  Biso   1.000  He
  Ne28     1.0000 0.06792  0.88288  0.99975  Biso   1.000  Ne
  Ne29     1.0000 0.38010  0.19707  0.65833  Biso   1.000  Ne
  He29     1.0000 0.39592  0.17000  0.65858  Biso   1.000  He
  He30     1.0000 0.42873  0.17658  0.65966  Biso   1.000  He
  Ne30     1.0000 0.45084  0.15281  0.66779  Biso   1.000  Ne
  Ne31     1.0000 0.98580  0.94537  0.09236  Biso   1.000  Ne
  He31     1.0000 0.98542  0.92416  0.06802  Biso   1.000  He
  He32     1.0000 0.98429  0.93493  0.03680  Biso   1.000  He
  Ne32     1.0000 0.98661  0.91117  0.01391  Biso   1.000  Ne
  Ne33     1.0000 0.23792  0.97611  0.54980  Biso   1.000  Ne
  He33     1.0000 0.22663  0.94478  0.55413  Biso   1.000  He
  He34     1.0000 0.24144  0.92663  0.57839  Biso   1.000  He
  Ne34     1.0000 0.22264  0.89976  0.57932  Biso   1.000  Ne
  Ne35     1.0000 0.41001  0.55211  0.91097  Biso   1.000  Ne
  He35     1.0000 0.42987  0.54405  0.88348  Biso   1.000  He
  He36     1.0000 0.41271  0.54735  0.85315  Biso   1.000  He
  Ne36     1.0000 0.43274  0.54434  0.82780  Biso   1.000  Ne
  Ne37     1.0000 0.09845  0.34486  0.61672  Biso   1.000  Ne
  He37     1.0000 0.11669  0.37349  0.62659  Biso   1.000  He
  He38     1.0000 0.14699  0.37546  0.60913  Biso   1.000  He
  Ne38     1.0000 0.16382  0.40522  0.61784  Biso   1.000  Ne
  Ne39     1.0000 0.61915  0.43485  0.94343  Biso   1.000  Ne
  He39     1.0000 0.58707  0.42964  0.93912  Biso   1.000  He
  He40     1.0000 0.56780  0.44490  0.96200  Biso   1.000  He
  Ne40     1.0000 0.53694  0.43342  0.96080  Biso   1.000  Ne
  Ne41     1.0000 0.18614  0.85310  0.83848  Biso   1.000  Ne
  He41     1.0000 0.17605  0.85362  0.80838  Biso   1.000  He
  He42     1.0000 0.14249  0.85432  0.80146  Biso   1.000  He
  Ne42     1.0000 0.13487  0.85815  0.77044  Biso   1.000  Ne
  Ne43     1.0000 0.43613  0.40220  0.11968  Biso   1.000  Ne
  He43     1.0000 0.40927  0.41356  0.13371  Biso   1.000  He
  He44     1.0000 0.38202  0.39582  0.13125  Biso   1.000  He
  Ne44     1.0000 0.35571  0.40938  0.14651  Biso   1.000  Ne
  Ne45     1.0000 0.09135  0.47361  0.54822  Biso   1.000  Ne
  He45     1.0000 0.09134  0.50454  0.55973  Biso   1.000  He
  He46     1.0000 0.06525  0.52213  0.55367  Biso   1.000  He
  Ne46     1.0000 0.06971  0.55517  0.56162  Biso   1.000  Ne
  Ne47     1.0000 0.32935  0.38881  0.92491  Biso   1.000  Ne
  He47     1.0000 0.33121  0.38410  0.89014  Biso   1.000  He
  He48     1.0000 0.35834  0.37635  0.87578  Biso   1.000  He
  Ne48     1.0000 0.36069  0.37483  0.84400  Biso   1.000  Ne
  Ne49     1.0000 0.89299  0.06499  0.92833  Biso   1.000  Ne
  He49     1.0000 0.92229  0.05956  0.94469  Biso   1.000  He
  He50     1.0000 0.93636  0.03140  0.93832  Biso   1.000  He
  Ne50     1.0000 0.96727  0.03318  0.94832  Biso   1.000  Ne
  Ne51     1.0000 0.89714  0.39590  0.45163  Biso   1.000  Ne
  He51     1.0000 0.87745  0.40130  0.42534  Biso   1.000  He
  He52     1.0000 0.84507  0.40306  0.43359  Biso   1.000  He
  Ne52     1.0000 0.82118  0.40614  0.40950  Biso   1.000  Ne
  Ne53     1.0000 0.92620  0.80687  0.19756  Biso   1.000  Ne
  He53     1.0000 0.91491  0.80109  0.16617  Biso   1.000  He
  He54     1.0000 0.92633  0.82340  0.14585  Biso   1.000  He
  Ne54     1.0000 0.91503  0.82098  0.11488  Biso   1.000  Ne
  Ne55     1.0000 0.42128  0.82794  0.68424  Biso   1.000  Ne
  He55     1.0000 0.43194  0.85931  0.67656  Biso   1.000  He
  He56     1.0000 0.42141  0.86871  0.64560  Biso   1.000  He
  Ne56     1.0000 0.43307  0.90033  0.63502  Biso   1.000  Ne
  Ne57     1.0000 0.04413  0.00388  0.99158  Biso   1.000  Ne
  He57     1.0000 0.05431  0.02682  0.97165  Biso   1.000  He
  He58     1.0000 0.08712  0.02069  0.96240  Biso   1.000  He
  Ne58     1.0000 0.09447  0.04182  0.93868  Biso   1.000  Ne
  Ne59     1.0000 0.63466  0.35853  0.81710  Biso   1.000  Ne
  He59     1.0000 0.66339  0.34876  0.82462  Biso   1.000  He
  He60     1.0000 0.68234  0.37473  0.83114  Biso   1.000  He
  Ne60     1.0000 0.70348  0.38194  0.80644  Biso   1.000  Ne
  Ne61     1.0000 0.10517  0.69896  0.41760  Biso   1.000  Ne
  He61     1.0000 0.10476  0.67234  0.43636  Biso   1.000  He
  He62     1.0000 0.12874  0.65039  0.43143  Biso   1.000  He
  Ne62     1.0000 0.12137  0.62237  0.44766  Biso   1.000  Ne
  Ne63     1.0000 0.59935  0.05781  0.23319  Biso   1.000  Ne
  He63     1.0000 0.61149  0.05910  0.26605  Biso   1.000  He
  He64     1.0000 0.59155  0.07432  0.28584  Biso   1.000  He
  Ne64     1.0000 0.59882  0.07243  0.31976  Biso   1.000  Ne
  Ne65     1.0000 0.66267  0.58297  0.91088  Biso   1.000  Ne
  He65     1.0000 0.63800  0.56396  0.89728  Biso   1.000  He
  He66     1.0000 0.62554  0.57743  0.87037  Biso   1.000  He
  Ne66     1.0000 0.60041  0.56160  0.85710  Biso   1.000  Ne
  Ne67     1.0000 0.10954  0.34906  0.44507  Biso   1.000  Ne
  He67     1.0000 0.09269  0.37342  0.45790  Biso   1.000  He
  He68     1.0000 0.11100  0.40076  0.45960  Biso   1.000  He
  Ne68     1.0000 0.09635  0.42600  0.47239  Biso   1.000  Ne
  Ne69     1.0000 0.92216  0.66482  0.41021  Biso   1.000  Ne
  He69     1.0000 0.91244  0.68775  0.43084  Biso   1.000  He
  He70     1.0000 0.90855  0.71420  0.41765  Biso   1.000  He
  Ne70     1.0000 0.91326  0.74082  0.43705  Biso   1.000  Ne
  Ne71     1.0000 0.60146  0.33906  0.15530  Biso   1.000  Ne
  He71     1.0000 0.60014  0.35618  0.18428  Biso   1.000  He
  He72     1.0000 0.59871  0.38819  0.18316  Biso   1.000  He
  Ne72     1.0000 0.62584  0.40475  0.19148  Biso   1.000  Ne
  Ne73     1.0000 0.18600  0.08824  0.93955  Biso   1.000  Ne
  He73     1.0000 0.15869  0.10771  0.94140  Biso   1.000  He
  He74     1.0000 0.14293  0.10944  0.91322  Biso   1.000  He
  Ne74     1.0000 0.11918  0.13331  0.91523  Biso   1.000  Ne
  Ne75     1.0000 0.11080  0.12289  0.13810  Biso   1.000  Ne
  He75     1.0000 0.08406  0.10276  0.13044  Biso   1.000  He
  He76     1.0000 0.08309  0.08434  0.10356  Biso   1.000  He
  Ne76     1.0000 0.05570  0.06630  0.09881  Biso   1.000  Ne
  Ne77     1.0000 0.42942  0.60067  0.08701  Biso   1.000  Ne
  He77     1.0000 0.42435  0.57900  0.10954  Biso   1.000  He
  He78     1.0000 0.44401  0.58363  0.13628  Biso   1.000  He
  Ne78     1.0000 0.43849  0.56450  0.16068  Biso   1.000  Ne
  Ne79     1.0000 0.62703  0.08477  0.45125  Biso   1.000  Ne
  He79     1.0000 0.60560  0.06079  0.45018  Biso   1.000  He
  He80     1.0000 0.60210  0.04708  0.42009  Biso   1.000  He
  Ne80     1.0000 0.57895  0.02257  0.42275  Biso   1.000  Ne
  Ne81     1.0000 0.43710  0.35737  0.82541  Biso   1.000  Ne
  He81     1.0000 0.43927  0.32812  0.83651  Biso   1.000  He
  He82     1.0000 0.44089  0.32659  0.87018  Biso   1.000  He
  Ne82     1.0000 0.44410  0.29659  0.88163  Biso   1.000  Ne
  Ne83     1.0000 0.61471  0.05998  0.68395  Biso   1.000  Ne
  He83     1.0000 0.61804  0.06656  0.71744  Biso   1.000  He
  He84     1.0000 0.64966  0.08005  0.72440  Biso   1.000  He
  Ne84     1.0000 0.65283  0.11326  0.72598  Biso   1.000  Ne
  Ne85     1.0000 0.24523  0.85285  0.93167  Biso   1.000  Ne
  He85     1.0000 0.22189  0.86958  0.91928  Biso   1.000  He
  He86     1.0000 0.19041  0.87239  0.93477  Biso   1.000  He
  Ne86     1.0000 0.17101  0.89554  0.92189  Biso   1.000  Ne
  Ne87     1.0000 0.81061  0.10770  0.84774  Biso   1.000  Ne
  He87     1.0000 0.79649  0.08884  0.87102  Biso   1.000  He
  He88     1.0000 0.80748  0.09819  0.89998  Biso   1.000  He
  Ne88     1.0000 0.79776  0.08086  0.92529  Biso   1.000  Ne
  Ne89     1.0000 0.41119  0.09861  0.59876  Biso   1.000  Ne
  He89     1.0000 0.37722  0.09346  0.59553  Biso   1.000  He
  He90     1.0000 0.36465  0.06485  0.60657  Biso   1.000  He
  Ne90     1.0000 0.33215  0.06358  0.60909  Biso   1.000  Ne
  Ne91     1.0000 0.10293  0.88530  0.08688  Biso   1.000  Ne
  He91     1.0000 0.08449  0.90997  0.08131  Biso   1.000  He
  He92     1.0000 0.09103  0.93472  0.10097  Biso   1.000  He
  Ne92     1.0000 0.07459  0.96041  0.09044  Biso   1.000  Ne
  Ne93     1.0000 0.69186  0.33555  0.09375  Biso   1.000  Ne
  He93     1.0000 0.67759  0.36501  0.09995  Biso   1.000  He
  He94     1.0000 0.64568  0.36607  0.08964  Biso   1.000  He
  Ne94     1.0000 0.62858  0.39452  0.09791  Biso   1.000  Ne
  Ne95     1.0000 0.59195  0.65839  0.91633  Biso   1.000  Ne
  He95     1.0000 0.59091  0.68822  0.89934  Biso   1.000  He
  He96     1.0000 0.58323  0.68418  0.86837  Biso   1.000  He
  Ne96     1.0000 0.60918  0.68012  0.84812  Biso   1.000  Ne
  Ne97     1.0000 0.08444  0.64038  0.69887  Biso   1.000  Ne
  He97     1.0000 0.08682  0.67326  0.70370  Biso   1.000  He
  He98     1.0000 0.08190  0.69471  0.67953  Biso   1.000  He
  Ne98     1.0000 0.08183  0.72505  0.69099  Biso   1.000  Ne
  Ne99     1.0000 0.91480  0.18065  0.07884  Biso   1.000  Ne
  He99     1.0000 0.90575  0.19379  0.10698  Biso   1.000  He
  He100    1.0000 0.93147  0.19866  0.12629  Biso   1.000  He
  Ne100    1.0000 0.92321  0.21885  0.15349  Biso   1.000  Ne
  Ne101    1.0000 0.96703  0.56818  0.49673  Biso   1.000  Ne
  He101    1.0000 0.96277  0.55318  0.52473  Biso   1.000  He
  He102    1.0000 0.93371  0.54309  0.53423  Biso   1.000  He
  Ne102    1.0000 0.92965  0.52911  0.56166  Biso   1.000  Ne
  Ne103    1.0000 0.94735  0.36324  0.38571  Biso   1.000  Ne
  He103    1.0000 0.92641  0.37509  0.36393  Biso   1.000  He
  He104    1.0000 0.94024  0.38156  0.33599  Biso   1.000  He
  Ne104    1.0000 0.91868  0.39600  0.31453  Biso   1.000  Ne
  Ne105    1.0000 0.11713  0.26918  0.69083  Biso   1.000  Ne
  He105    1.0000 0.09131  0.24749  0.69195  Biso   1.000  He
  He106    1.0000 0.10271  0.21692  0.69260  Biso   1.000  He
  Ne106    1.0000 0.07949  0.19232  0.69330  Biso   1.000  Ne
  Ne107    1.0000 0.57966  0.07078  0.52629  Biso   1.000  Ne
  He107    1.0000 0.57526  0.03953  0.53254  Biso   1.000  He
  He108    1.0000 0.55716  0.02317  0.50728  Biso   1.000  He
  Ne108    1.0000 0.54901  0.99326  0.51257  Biso   1.000  Ne
  Ne109    1.0000 0.28141  0.09450  0.42007  Biso   1.000  Ne
  He109    1.0000 0.31005  0.08044  0.41838  Biso   1.000  He
  He110    1.0000 0.32980  0.08905  0.44470  Biso   1.000  He
  Ne110    1.0000 0.36121  0.07297  0.44681  Biso   1.000  Ne
  Ne111    1.0000 0.47795  0.96974  0.48692  Biso   1.000  Ne
  He111    1.0000 0.46097  0.99771  0.48803  Biso   1.000  He
  He112    1.0000 0.47689  0.02264  0.47695  Biso   1.000  He
  Ne112    1.0000 0.46432  0.05395  0.47919  Biso   1.000  Ne
  Ne113    1.0000 0.24122  0.56403  0.61193  Biso   1.000  Ne
  He113    1.0000 0.22744  0.58143  0.63629  Biso   1.000  He
  He114    1.0000 0.23072  0.56454  0.66452  Biso   1.000  He
  Ne114    1.0000 0.21988  0.58034  0.69053  Biso   1.000  Ne
  Ne115    1.0000 0.82650  0.59270  0.59214  Biso   1.000  Ne
  He115    1.0000 0.85835  0.59896  0.59819  Biso   1.000  He
  He116    1.0000 0.87845  0.57464  0.61184  Biso   1.000  He
  Ne116    1.0000 0.91047  0.58224  0.61981  Biso   1.000  Ne
  Ne117    1.0000 0.43369  0.33810  0.17709  Biso   1.000  Ne
  He117    1.0000 0.44489  0.32848  0.14788  Biso   1.000  He
  He118    1.0000 0.42758  0.30741  0.12816  Biso   1.000  He
  Ne118    1.0000 0.44137  0.29699  0.10354  Biso   1.000  Ne
  Ne119    1.0000 0.61648  0.28510  0.87554  Biso   1.000  Ne
  He119    1.0000 0.59508  0.30929  0.87583  Biso   1.000  He
  He120    1.0000 0.60296  0.33271  0.89841  Biso   1.000  He
  Ne120    1.0000 0.58330  0.35807  0.89880  Biso   1.000  Ne
  Ne121    1.0000 0.52561  0.00204  0.59450  Biso   1.000  Ne
  He121    1.0000 0.49381  0.00957  0.58037  Biso   1.000  He
  He122    1.0000 0.46632  0.01080  0.60047  Biso   1.000  He
  Ne122    1.0000 0.43899  0.02502  0.58623  Biso   1.000  Ne
  Ne123    1.0000 0.11594  0.76195  0.94268  Biso   1.000  Ne
  He123    1.0000 0.11008  0.78192  0.91603  Biso   1.000  He
  He124    1.0000 0.11262  0.81593  0.92160  Biso   1.000  He
  Ne124    1.0000 0.10706  0.83278  0.89255  Biso   1.000  Ne
  Ne125    1.0000 0.48438  0.50439  0.08987  Biso   1.000  Ne
  He125    1.0000 0.51073  0.50155  0.06993  Biso   1.000  He
  He126    1.0000 0.54050  0.49893  0.08687  Biso   1.000  He
  Ne126    1.0000 0.55006  0.46797  0.10090  Biso   1.000  Ne
  Ne127    1.0000 0.75792  0.72627  0.40178  Biso   1.000  Ne
  He127    1.0000 0.74504  0.69535  0.40391  Biso   1.000  He
  He128    1.0000 0.76867  0.67451  0.39407  Biso   1.000  He
  Ne128    1.0000 0.76166  0.64160  0.39324  Biso   1.000  Ne
  Ne129    1.0000 0.74887  0.39268  0.90261  Biso   1.000  Ne
  He129    1.0000 0.73201  0.37731  0.91802  Biso   1.000  He
  He130    1.0000 0.70069  0.39031  0.91785  Biso   1.000  He
  Ne130    1.0000 0.67586  0.37004  0.93504  Biso   1.000  Ne
  Ne131    1.0000 0.60113  0.91685  0.42329  Biso   1.000  Ne
  He131    1.0000 0.56810  0.91082  0.42524  Biso   1.000  He
  He132    1.0000 0.55007  0.93716  0.42656  Biso   1.000  He
  Ne132    1.0000 0.51660  0.92995  0.42613  Biso   1.000  Ne
  Ne133    1.0000 0.64378  0.90439  0.34013  Biso   1.000  Ne
  He133    1.0000 0.62290  0.87903  0.33602  Biso   1.000  He
  He134    1.0000 0.59447  0.88906  0.32117  Biso   1.000  He
  Ne134    1.0000 0.57542  0.86545  0.31490  Biso   1.000  Ne
  Ne135    1.0000 0.14669  0.56066  0.71934  Biso   1.000  Ne
  He135    1.0000 0.13408  0.55505  0.69314  Biso   1.000  He
  He136    1.0000 0.10076  0.55852  0.68966  Biso   1.000  He
  Ne136    1.0000 0.08543  0.55438  0.65893  Biso   1.000  Ne
  Ne137    1.0000 0.93939  0.81393  0.92916  Biso   1.000  Ne
  He137    1.0000 0.92854  0.83042  0.90392  Biso   1.000  He
  He138    1.0000 0.93863  0.86260  0.90142  Biso   1.000  He
  Ne138    1.0000 0.92777  0.87801  0.87427  Biso   1.000  Ne
  Ne139    1.0000 0.85530  0.62409  0.70589  Biso   1.000  Ne
  He139    1.0000 0.87274  0.63171  0.73481  Biso   1.000  He
  He140    1.0000 0.89285  0.65589  0.73418  Biso   1.000  He
  Ne140    1.0000 0.91060  0.65755  0.76318  Biso   1.000  Ne
