data_image0
_cell_length_a       46.8662
_cell_length_b       46.5709
_cell_length_c       46.5018
_cell_angle_alpha    90
_cell_angle_beta     90
_cell_angle_gamma    90

_symmetry_space_group_name_H-M    "P 1"
_symmetry_int_tables_number       1

loop_
  _symmetry_equiv_pos_as_xyz
  'x, y, z'

loop_
  _atom_site_label
  _atom_site_occupancy
  _atom_site_fract_x
  _atom_site_fract_y
  _atom_site_fract_z
  _atom_site_thermal_displace_type
  _atom_site_B_iso_or_equiv
  _atom_site_type_symbol
  Ne1      1.0000 0.41738  0.02547  0.46219  Biso   1.000  Ne
  He1      1.0000 0.44827  0.03135  0.47147  Biso   1.000  He
  He2      1.0000 0.45569  0.06157  0.47848  Biso   1.000  He
  Ne2      1.0000 0.48729  0.06489  0.48836  Biso   1.000  Ne
  Ne3      1.0000 0.26693  0.05678  0.18002  Biso   1.000  Ne
  He3      1.0000 0.25065  0.06700  0.15164  Biso   1.000  He
  He4      1.0000 0.21732  0.06081  0.15092  Biso   1.000  He
  Ne4      1.0000 0.20141  0.07015  0.12197  Biso   1.000  Ne
  Ne5      1.0000 0.42224  0.61028  0.64224  Biso   1.000  Ne
  He5      1.0000 0.41861  0.61882  0.67414  Biso   1.000  He
  He6      1.0000 0.44756  0.62696  0.68940  Biso   1.000  He
  Ne6      1.0000 0.44822  0.64314  0.71784  Biso   1.000  Ne
  Ne7      1.0000 0.00115  0.44247  0.46009  Biso   1.000  Ne
  He7      1.0000 0.96886  0.44549  0.44692  Biso   1.000  He
  He8      1.0000 0.96202  0.42592  0.42133  Biso   1.000  He
  Ne8      1.0000 0.93240  0.43571  0.40789  Biso   1.000  Ne
  Ne9      1.0000 0.56378  0.04217  0.49249  Biso   1.000  Ne
  He9      1.0000 0.55681  0.04063  0.52528  Biso   1.000  He
  He10     1.0000 0.57977  0.05476  0.54510  Biso   1.000  He
  Ne10     1.0000 0.57244  0.05602  0.57688  Biso   1.000  Ne
  Ne11     1.0000 0.76214  0.70329  0.88043  Biso   1.000  Ne
  He11     1.0000 0.75728  0.67623  0.85862  Biso   1.000  He
  He12     1.0000 0.75227  0.64732  0.87604  Biso   1.000  He
  Ne12     1.0000 0.74670  0.62283  0.85463  Biso   1.000  Ne
  Ne13     1.0000 0.13480  0.07761  0.90300  Biso   1.000  Ne
  He13     1.0000 0.10983  0.08982  0.92362  Biso   1.000  He
  He14     1.0000 0.09807  0.12107  0.91190  Biso   1.000  He
  Ne14     1.0000 0.07704  0.13475  0.93158  Biso   1.000  Ne
  Ne15     1.0000 0.10379  0.72248  0.58950  Biso   1.000  Ne
  He15     1.0000 0.10700  0.69790  0.60991  Biso   1.000  He
  He16     1.0000 0.10835  0.70662  0.64203  Biso   1.000  He
  Ne16     1.0000 0.11043  0.67729  0.66255  Biso   1.000  Ne
  Ne17     1.0000 0.89259  0.83101  0.92089  Biso   1.000  Ne
  He17     1.0000 0.90049  0.84994  0.94697  Biso   1.000  He
  He18     1.0000 0.88951  0.88196  0.94406  Biso   1.000  He
  Ne18     1.0000 0.89293  0.90222  0.96915  Biso   1.000  Ne
  Ne19     1.0000 0.43817  0.89567  0.73027  Biso   1.000  Ne
  He19     1.0000 0.40710  0.88715  0.72111  Biso   1.000  He
  He20     1.0000 0.39549  0.90503  0.69453  Biso   1.000  He
  Ne20     1.0000 0.36685  0.89693  0.68454  Biso   1.000  Ne
  Ne21     1.0000 0.41907  0.61855  0.93061  Biso   1.000  Ne
  He21     1.0000 0.39547  0.60630  0.90963  Biso   1.000  He
  He22     1.0000 0.40427  0.58157  0.88780  Biso   1.000  He
  Ne22     1.0000 0.38085  0.57072  0.86711  Biso   1.000  Ne
  Ne23     1.0000 0.30897  0.91071  0.28444  Biso   1.000  Ne
  He23     1.0000 0.30351  0.88835  0.30785  Biso   1.000  He
  He24     1.0000 0.30331  0.85433  0.29884  Biso   1.000  He
  Ne24     1.0000 0.29274  0.83307  0.32124  Biso   1.000  Ne
  Ne25     1.0000 0.77368  0.41850  0.69754  Biso   1.000  Ne
  He25     1.0000 0.76084  0.41279  0.72657  Biso   1.000  He
  He26     1.0000 0.78220  0.40201  0.74546  Biso   1.000  He
  Ne26     1.0000 0.77370  0.40205  0.77431  Biso   1.000  Ne
  Ne27     1.0000 0.61134  0.09021  0.71744  Biso   1.000  Ne
  He27     1.0000 0.61290  0.06975  0.74289  Biso   1.000  He
  He28     1.0000 0.58668  0.05160  0.74407  Biso   1.000  He
  Ne28     1.0000 0.58701  0.03111  0.77117  Biso   1.000  Ne
  Ne29     1.0000 0.37338  0.06259  0.64270  Biso   1.000  Ne
  He29     1.0000 0.35869  0.05878  0.61290  Biso   1.000  He
  He30     1.0000 0.32489  0.05904  0.61635  Biso   1.000  He
  Ne30     1.0000 0.31077  0.05844  0.58748  Biso   1.000  Ne
  Ne31     1.0000 0.79727  0.88079  0.87478  Biso   1.000  Ne
  He31     1.0000 0.77437  0.88766  0.89768  Biso   1.000  He
  He32     1.0000 0.78930  0.89733  0.92758  Biso   1.000  He
  Ne32     1.0000 0.76837  0.90334  0.95236  Biso   1.000  Ne
  Ne33     1.0000 0.31217  0.35514  0.78602  Biso   1.000  Ne
  He33     1.0000 0.31878  0.36324  0.81728  Biso   1.000  He
  He34     1.0000 0.32866  0.39566  0.82048  Biso   1.000  He
  Ne34     1.0000 0.32975  0.40697  0.85223  Biso   1.000  Ne
  Ne35     1.0000 0.46244  0.78120  0.77573  Biso   1.000  Ne
  He35     1.0000 0.43086  0.77072  0.76727  Biso   1.000  He
  He36     1.0000 0.41230  0.79358  0.75348  Biso   1.000  He
  Ne36     1.0000 0.37809  0.78442  0.74910  Biso   1.000  Ne
  Ne37     1.0000 0.58230  0.04593  0.39671  Biso   1.000  Ne
  He37     1.0000 0.60401  0.05022  0.42297  Biso   1.000  He
  He38     1.0000 0.60742  0.08193  0.42845  Biso   1.000  He
  Ne38     1.0000 0.63105  0.08606  0.45369  Biso   1.000  Ne
  Ne39     1.0000 0.71956  0.04338  0.98293  Biso   1.000  Ne
  He39     1.0000 0.73239  0.03689  0.95350  Biso   1.000  He
  He40     1.0000 0.75793  0.05665  0.94586  Biso   1.000  He
  Ne40     1.0000 0.77286  0.04823  0.91677  Biso   1.000  Ne
  Ne41     1.0000 0.92908  0.99719  0.05049  Biso   1.000  Ne
  He41     1.0000 0.93157  0.98290  0.01929  Biso   1.000  He
  He42     1.0000 0.93655  0.00370  0.99474  Biso   1.000  He
  Ne42     1.0000 0.93674  0.99225  0.96339  Biso   1.000  Ne
  Ne43     1.0000 0.16665  0.15096  0.24219  Biso   1.000  Ne
  He43     1.0000 0.13350  0.16263  0.25115  Biso   1.000  He
  He44     1.0000 0.11715  0.17772  0.22616  Biso   1.000  He
  Ne44     1.0000 0.08694  0.18329  0.23077  Biso   1.000  Ne
  Ne45     1.0000 0.54345  0.96304  0.59467  Biso   1.000  Ne
  He45     1.0000 0.55105  0.95416  0.56356  Biso   1.000  He
  He46     1.0000 0.58209  0.95729  0.55355  Biso   1.000  He
  Ne46     1.0000 0.59032  0.94633  0.52348  Biso   1.000  Ne
  Ne47     1.0000 0.70346  0.57639  0.46781  Biso   1.000  Ne
  He47     1.0000 0.72939  0.57426  0.44966  Biso   1.000  He
  He48     1.0000 0.74351  0.54141  0.45223  Biso   1.000  He
  Ne48     1.0000 0.77168  0.53528  0.43571  Biso   1.000  Ne
  Ne49     1.0000 0.34109  0.15180  0.42649  Biso   1.000  Ne
  He49     1.0000 0.34344  0.12271  0.41047  Biso   1.000  He
  He50     1.0000 0.34862  0.09995  0.43063  Biso   1.000  He
  Ne50     1.0000 0.34820  0.06950  0.41756  Biso   1.000  Ne
  Ne51     1.0000 0.13644  0.67038  0.28780  Biso   1.000  Ne
  He51     1.0000 0.10945  0.66587  0.26808  Biso   1.000  He
  He52     1.0000 0.12112  0.66172  0.23695  Biso   1.000  He
  Ne52     1.0000 0.09849  0.65822  0.21292  Biso   1.000  Ne
  Ne53     1.0000 0.24621  0.82561  0.59607  Biso   1.000  Ne
  He53     1.0000 0.26524  0.81358  0.61724  Biso   1.000  He
  He54     1.0000 0.26599  0.83250  0.64483  Biso   1.000  He
  Ne54     1.0000 0.28446  0.82174  0.67218  Biso   1.000  Ne
  Ne55     1.0000 0.32465  0.37447  0.94786  Biso   1.000  Ne
  He55     1.0000 0.33752  0.34286  0.94711  Biso   1.000  He
  He56     1.0000 0.34511  0.33220  0.91668  Biso   1.000  He
  Ne56     1.0000 0.35686  0.30385  0.91504  Biso   1.000  Ne
  Ne57     1.0000 0.32279  0.87561  0.42715  Biso   1.000  Ne
  He57     1.0000 0.31308  0.90418  0.41958  Biso   1.000  He
  He58     1.0000 0.28032  0.90507  0.41297  Biso   1.000  He
  Ne58     1.0000 0.27012  0.93459  0.40176  Biso   1.000  Ne
  Ne59     1.0000 0.61221  0.10440  0.62292  Biso   1.000  Ne
  He59     1.0000 0.60910  0.13235  0.64248  Biso   1.000  He
  He60     1.0000 0.59638  0.15703  0.62430  Biso   1.000  He
  Ne60     1.0000 0.60542  0.18757  0.63049  Biso   1.000  Ne
  Ne61     1.0000 0.43641  0.13269  0.42102  Biso   1.000  Ne
  He61     1.0000 0.44889  0.11303  0.39508  Biso   1.000  He
  He62     1.0000 0.43213  0.08415  0.38943  Biso   1.000  He
  Ne62     1.0000 0.45172  0.06201  0.37139  Biso   1.000  Ne
  Ne63     1.0000 0.15138  0.29635  0.99663  Biso   1.000  Ne
  He63     1.0000 0.14812  0.28651  0.02624  Biso   1.000  He
  He64     1.0000 0.17665  0.29501  0.04586  Biso   1.000  He
  Ne64     1.0000 0.16998  0.29327  0.07777  Biso   1.000  Ne
  Ne65     1.0000 0.57285  0.87391  0.58324  Biso   1.000  Ne
  He65     1.0000 0.59284  0.89304  0.60345  Biso   1.000  He
  He66     1.0000 0.62335  0.89082  0.59640  Biso   1.000  He
  Ne66     1.0000 0.64127  0.91210  0.61505  Biso   1.000  Ne
  Ne67     1.0000 0.57969  0.79329  0.37380  Biso   1.000  Ne
  He67     1.0000 0.58965  0.82162  0.35748  Biso   1.000  He
  He68     1.0000 0.57820  0.84976  0.37319  Biso   1.000  He
  Ne68     1.0000 0.58115  0.88055  0.35630  Biso   1.000  Ne
  Ne69     1.0000 0.28721  0.91740  0.11536  Biso   1.000  Ne
  He69     1.0000 0.25931  0.91528  0.09835  Biso   1.000  He
  He70     1.0000 0.23561  0.90362  0.11788  Biso   1.000  He
  Ne70     1.0000 0.20584  0.90252  0.10144  Biso   1.000  Ne
  Ne71     1.0000 0.62584  0.66570  0.20492  Biso   1.000  Ne
  He71     1.0000 0.63734  0.63557  0.19431  Biso   1.000  He
  He72     1.0000 0.65685  0.62153  0.21747  Biso   1.000  He
  Ne72     1.0000 0.67028  0.59057  0.21178  Biso   1.000  Ne
  Ne73     1.0000 0.08695  0.61579  0.43686  Biso   1.000  Ne
  He73     1.0000 0.10192  0.63215  0.41434  Biso   1.000  He
  He74     1.0000 0.12420  0.65315  0.42700  Biso   1.000  He
  Ne74     1.0000 0.14032  0.66837  0.40329  Biso   1.000  Ne
  Ne75     1.0000 0.86037  0.39688  0.64922  Biso   1.000  Ne
  He75     1.0000 0.85290  0.39058  0.61861  Biso   1.000  He
  He76     1.0000 0.82221  0.39928  0.61543  Biso   1.000  He
  Ne76     1.0000 0.80772  0.39416  0.58476  Biso   1.000  Ne
  Ne77     1.0000 0.37006  0.91559  0.59140  Biso   1.000  Ne
  He77     1.0000 0.35344  0.89184  0.60789  Biso   1.000  He
  He78     1.0000 0.35773  0.86325  0.59443  Biso   1.000  He
  Ne78     1.0000 0.34555  0.83589  0.61215  Biso   1.000  Ne
  Ne79     1.0000 0.08534  0.45023  0.46630  Biso   1.000  Ne
  He79     1.0000 0.09157  0.47927  0.45019  Biso   1.000  He
  He80     1.0000 0.06822  0.49990  0.45356  Biso   1.000  He
  Ne80     1.0000 0.06946  0.52639  0.43214  Biso   1.000  Ne
  Ne81     1.0000 0.38002  0.70000  0.16160  Biso   1.000  Ne
  He81     1.0000 0.39435  0.66857  0.16436  Biso   1.000  He
  He82     1.0000 0.42141  0.66129  0.14770  Biso   1.000  He
  Ne82     1.0000 0.43265  0.62896  0.15447  Biso   1.000  Ne
  Ne83     1.0000 0.25996  0.56121  0.43616  Biso   1.000  Ne
  He83     1.0000 0.25083  0.56901  0.40443  Biso   1.000  He
  He84     1.0000 0.22600  0.54889  0.39614  Biso   1.000  He
  Ne84     1.0000 0.21968  0.54950  0.36628  Biso   1.000  Ne
  Ne85     1.0000 0.94223  0.88690  0.83884  Biso   1.000  Ne
  He85     1.0000 0.90949  0.87955  0.83898  Biso   1.000  He
  He86     1.0000 0.90507  0.84906  0.84591  Biso   1.000  He
  Ne86     1.0000 0.87002  0.84442  0.84146  Biso   1.000  Ne
  Ne87     1.0000 0.42836  0.55907  0.78009  Biso   1.000  Ne
  He87     1.0000 0.40999  0.58681  0.77477  Biso   1.000  He
  He88     1.0000 0.42140  0.61183  0.79447  Biso   1.000  He
  Ne88     1.0000 0.40059  0.63934  0.79426  Biso   1.000  Ne
  Ne89     1.0000 0.45733  0.94766  0.42192  Biso   1.000  Ne
  He89     1.0000 0.48869  0.95622  0.42456  Biso   1.000  He
  He90     1.0000 0.50404  0.93193  0.44024  Biso   1.000  He
  Ne90     1.0000 0.53696  0.93574  0.44221  Biso   1.000  Ne
  Ne91     1.0000 0.94795  0.55901  0.58354  Biso   1.000  Ne
  He91     1.0000 0.94496  0.56052  0.55173  Biso   1.000  He
  He92     1.0000 0.94682  0.53207  0.53929  Biso   1.000  He
  Ne92     1.0000 0.94581  0.53144  0.50645  Biso   1.000  Ne
  Ne93     1.0000 0.96559  0.70784  0.15440  Biso   1.000  Ne
  He93     1.0000 0.94159  0.72581  0.14533  Biso   1.000  He
  He94     1.0000 0.93611  0.72537  0.11302  Biso   1.000  He
  Ne94     1.0000 0.91010  0.74173  0.10203  Biso   1.000  Ne
  Ne95     1.0000 0.59693  0.65553  0.11368  Biso   1.000  Ne
  He95     1.0000 0.62891  0.66166  0.10831  Biso   1.000  He
  He96     1.0000 0.64210  0.63628  0.09726  Biso   1.000  He
  Ne96     1.0000 0.67277  0.64058  0.08733  Biso   1.000  Ne
  Ne97     1.0000 0.46244  0.50998  0.06444  Biso   1.000  Ne
  He97     1.0000 0.44480  0.51865  0.03967  Biso   1.000  He
  He98     1.0000 0.44874  0.55205  0.03107  Biso   1.000  He
  Ne98     1.0000 0.43678  0.56149  0.00172  Biso   1.000  Ne
  Ne99     1.0000 0.70848  0.08266  0.73790  Biso   1.000  Ne
  He99     1.0000 0.69621  0.07893  0.70730  Biso   1.000  He
  He100    1.0000 0.71581  0.08484  0.68258  Biso   1.000  He
  Ne100    1.0000 0.70008  0.07983  0.65381  Biso   1.000  Ne
  Ne101    1.0000 0.58254  0.50126  0.06823  Biso   1.000  Ne
  He101    1.0000 0.57085  0.48248  0.04246  Biso   1.000  He
  He102    1.0000 0.58765  0.45549  0.03059  Biso   1.000  He
  Ne102    1.0000 0.58017  0.42626  0.04380  Biso   1.000  Ne
  Ne103    1.0000 0.08712  0.10272  0.16520  Biso   1.000  Ne
  He103    1.0000 0.08606  0.10887  0.13368  Biso   1.000  He
  He104    1.0000 0.07781  0.13989  0.12182  Biso   1.000  He
  Ne104    1.0000 0.07252  0.14104  0.08698  Biso   1.000  Ne
  Ne105    1.0000 0.26727  0.26735  0.89582  Biso   1.000  Ne
  He105    1.0000 0.26992  0.29572  0.91399  Biso   1.000  He
  He106    1.0000 0.24435  0.31474  0.90865  Biso   1.000  He
  Ne106    1.0000 0.24848  0.34769  0.92080  Biso   1.000  Ne
  Ne107    1.0000 0.42115  0.43627  0.08382  Biso   1.000  Ne
  He107    1.0000 0.42514  0.41481  0.10859  Biso   1.000  He
  He108    1.0000 0.44458  0.42234  0.13394  Biso   1.000  He
  Ne108    1.0000 0.44368  0.40211  0.16009  Biso   1.000  Ne
  Ne109    1.0000 0.41884  0.91656  0.31186  Biso   1.000  Ne
  He109    1.0000 0.41422  0.89784  0.33850  Biso   1.000  He
  He110    1.0000 0.39399  0.91244  0.36003  Biso   1.000  He
  Ne110    1.0000 0.38787  0.89844  0.38686  Biso   1.000  Ne
  Ne111    1.0000 0.97209  0.53648  0.42626  Biso   1.000  Ne
  He111    1.0000 0.95512  0.56557  0.42056  Biso   1.000  He
  He112    1.0000 0.94559  0.58323  0.44699  Biso   1.000  He
  Ne112    1.0000 0.92732  0.61019  0.43749  Biso   1.000  Ne
  Ne113    1.0000 0.14944  0.16779  0.93699  Biso   1.000  Ne
  He113    1.0000 0.17948  0.15531  0.92396  Biso   1.000  He
  He114    1.0000 0.18402  0.12141  0.92844  Biso   1.000  He
  Ne114    1.0000 0.21065  0.10885  0.91232  Biso   1.000  Ne
  Ne115    1.0000 0.64068  0.53765  0.71991  Biso   1.000  Ne
  He115    1.0000 0.61104  0.52641  0.71382  Biso   1.000  He
  He116    1.0000 0.61703  0.49555  0.70395  Biso   1.000  He
  Ne116    1.0000 0.58815  0.48052  0.70031  Biso   1.000  Ne
  Ne117    1.0000 0.05061  0.53819  0.59343  Biso   1.000  Ne
  He117    1.0000 0.06550  0.56307  0.57786  Biso   1.000  He
  He118    1.0000 0.08880  0.57545  0.59974  Biso   1.000  He
  Ne118    1.0000 0.10905  0.59878  0.58564  Biso   1.000  Ne
  Ne119    1.0000 0.95111  0.90497  0.15014  Biso   1.000  Ne
  He119    1.0000 0.95569  0.87624  0.16575  Biso   1.000  He
  He120    1.0000 0.94304  0.85346  0.14673  Biso   1.000  He
  Ne120    1.0000 0.94063  0.82097  0.15782  Biso   1.000  Ne
  Ne121    1.0000 0.08394  0.39563  0.69043  Biso   1.000  Ne
  He121    1.0000 0.09999  0.36607  0.67955  Biso   1.000  He
  He122    1.0000 0.08955  0.33955  0.69746  Biso   1.000  He
  Ne122    1.0000 0.10458  0.31369  0.68279  Biso   1.000  Ne
  Ne123    1.0000 0.23598  0.58383  0.59283  Biso   1.000  Ne
  He123    1.0000 0.22215  0.60904  0.60876  Biso   1.000  He
  He124    1.0000 0.20445  0.62981  0.58818  Biso   1.000  He
  Ne124    1.0000 0.18903  0.65440  0.60252  Biso   1.000  Ne
  Ne125    1.0000 0.96842  0.91056  0.05153  Biso   1.000  Ne
  He125    1.0000 0.99594  0.91535  0.07190  Biso   1.000  He
  He126    1.0000 0.02290  0.90474  0.05381  Biso   1.000  He
  Ne126    1.0000 0.04928  0.90290  0.07013  Biso   1.000  Ne
  Ne127    1.0000 0.82995  0.64715  0.43557  Biso   1.000  Ne
  He127    1.0000 0.79889  0.64491  0.42797  Biso   1.000  He
  He128    1.0000 0.79627  0.62376  0.40004  Biso   1.000  He
  Ne128    1.0000 0.76618  0.61896  0.38959  Biso   1.000  Ne
  Ne129    1.0000 0.84642  0.64329  0.59266  Biso   1.000  Ne
  He129    1.0000 0.83474  0.61054  0.59437  Biso   1.000  He
  He130    1.0000 0.86140  0.59257  0.60590  Biso   1.000  He
  Ne130    1.0000 0.85916  0.56074  0.61133  Biso   1.000  Ne
  Ne131    1.0000 0.12788  0.73772  0.18859  Biso   1.000  Ne
  He131    1.0000 0.13083  0.76276  0.20885  Biso   1.000  He
  He132    1.0000 0.13826  0.78917  0.18922  Biso   1.000  He
  Ne132    1.0000 0.14756  0.81650  0.20488  Biso   1.000  Ne
  Ne133    1.0000 0.21740  0.91113  0.86127  Biso   1.000  Ne
  He133    1.0000 0.23305  0.92296  0.89107  Biso   1.000  He
  He134    1.0000 0.21192  0.92084  0.91711  Biso   1.000  He
  Ne134    1.0000 0.22684  0.92613  0.94682  Biso   1.000  Ne
  Ne135    1.0000 0.70107  0.88422  0.41769  Biso   1.000  Ne
  He135    1.0000 0.67166  0.87294  0.41010  Biso   1.000  He
  He136    1.0000 0.64477  0.88854  0.42348  Biso   1.000  He
  Ne136    1.0000 0.63452  0.87478  0.45030  Biso   1.000  Ne
  Ne137    1.0000 0.61773  0.43713  0.23226  Biso   1.000  Ne
  He137    1.0000 0.64444  0.41938  0.21974  Biso   1.000  He
  He138    1.0000 0.66718  0.41326  0.24088  Biso   1.000  He
  Ne138    1.0000 0.69120  0.39776  0.22629  Biso   1.000  Ne
  Ne139    1.0000 0.68133  0.59636  0.83305  Biso   1.000  Ne
  He139    1.0000 0.65222  0.58184  0.83938  Biso   1.000  He
  He140    1.0000 0.62638  0.58694  0.81616  Biso   1.000  He
  Ne140    1.0000 0.59799  0.57378  0.82145  Biso   1.000  Ne
  Ne141    1.0000 0.42864  0.37588  0.90443  Biso   1.000  Ne
  He141    1.0000 0.41629  0.38376  0.93346  Biso   1.000  He
  He142    1.0000 0.40037  0.41163  0.93275  Biso   1.000  He
  Ne142    1.0000 0.38603  0.41960  0.96344  Biso   1.000  Ne
  Ne143    1.0000 0.70569  0.38568  0.08884  Biso   1.000  Ne
  He143    1.0000 0.68066  0.40616  0.09557  Biso   1.000  He
  He144    1.0000 0.65234  0.39207  0.09828  Biso   1.000  He
  Ne144    1.0000 0.62983  0.41570  0.10643  Biso   1.000  Ne
  Ne145    1.0000 0.69371  0.78082  0.63003  Biso   1.000  Ne
  He145    1.0000 0.68454  0.76660  0.60435  Biso   1.000  He
  He146    1.0000 0.65322  0.77705  0.59825  Biso   1.000  He
  Ne146    1.0000 0.63572  0.75911  0.57841  Biso   1.000  Ne
  Ne147    1.0000 0.44025  0.84730  0.62233  Biso   1.000  Ne
  He147    1.0000 0.42563  0.81906  0.62452  Biso   1.000  He
  He148    1.0000 0.44098  0.79108  0.61066  Biso   1.000  He
  Ne148    1.0000 0.42805  0.76117  0.61751  Biso   1.000  Ne
  Ne149    1.0000 0.27392  0.30951  0.18550  Biso   1.000  Ne
  He149    1.0000 0.28759  0.33332  0.16531  Biso   1.000  He
  He150    1.0000 0.29734  0.32284  0.13456  Biso   1.000  He
  Ne150    1.0000 0.31144  0.34330  0.11221  Biso   1.000  Ne
  Ne151    1.0000 0.94521  0.58257  0.32897  Biso   1.000  Ne
  He151    1.0000 0.95538  0.61539  0.32866  Biso   1.000  He
  He152    1.0000 0.93345  0.63568  0.34158  Biso   1.000  He
  Ne152    1.0000 0.94645  0.66411  0.34823  Biso   1.000  Ne
  Ne153    1.0000 0.13459  0.90808  0.84277  Biso   1.000  Ne
  He153    1.0000 0.13116  0.90229  0.87376  Biso   1.000  He
  He154    1.0000 0.09885  0.90039  0.88318  Biso   1.000  He
  Ne154    1.0000 0.09261  0.89619  0.91629  Biso   1.000  Ne
  Ne155    1.0000 0.54936  0.63454  0.69928  Biso   1.000  Ne
  He155    1.0000 0.56606  0.65169  0.71880  Biso   1.000  He
  He156    1.0000 0.57653  0.63383  0.74399  Biso   1.000  He
  Ne156    1.0000 0.59755  0.64922  0.76355  Biso   1.000  Ne
  Ne157    1.0000 0.72803  0.84401  0.08238  Biso   1.000  Ne
  He157    1.0000 0.74590  0.82033  0.09423  Biso   1.000  He
  He158    1.0000 0.77651  0.83026  0.10285  Biso   1.000  He
  Ne158    1.0000 0.79602  0.80813  0.11303  Biso   1.000  Ne
  Ne159    1.0000 0.81901  0.85097  0.71341  Biso   1.000  Ne
  He159    1.0000 0.80739  0.85096  0.74361  Biso   1.000  He
  He160    1.0000 0.78520  0.87364  0.74775  Biso   1.000  He
  Ne160    1.0000 0.77063  0.87340  0.77885  Biso   1.000  Ne
  Ne161    1.0000 0.14594  0.30383  0.24704  Biso   1.000  Ne
  He161    1.0000 0.15349  0.33437  0.25433  Biso   1.000  He
  He162    1.0000 0.16537  0.33651  0.28437  Biso   1.000  He
  Ne162    1.0000 0.18150  0.36709  0.29183  Biso   1.000  Ne
  Ne163    1.0000 0.42549  0.01890  0.57140  Biso   1.000  Ne
  He163    1.0000 0.44191  0.99526  0.55375  Biso   1.000  He
  He164    1.0000 0.47463  0.00080  0.54814  Biso   1.000  He
  Ne164    1.0000 0.48698  0.98245  0.52110  Biso   1.000  Ne
  Ne165    1.0000 0.11851  0.88353  0.17573  Biso   1.000  Ne
  He165    1.0000 0.11986  0.88267  0.14251  Biso   1.000  He
  He166    1.0000 0.12546  0.91422  0.13164  Biso   1.000  He
  Ne166    1.0000 0.12693  0.92213  0.09926  Biso   1.000  Ne
  Ne167    1.0000 0.34981  0.66928  0.08507  Biso   1.000  Ne
  He167    1.0000 0.36891  0.64017  0.08412  Biso   1.000  He
  He168    1.0000 0.35080  0.61270  0.08165  Biso   1.000  He
  Ne168    1.0000 0.37068  0.58389  0.08256  Biso   1.000  Ne
  Ne169    1.0000 0.92832  0.43463  0.55182  Biso   1.000  Ne
  He169    1.0000 0.93684  0.40395  0.56116  Biso   1.000  He
  He170    1.0000 0.91995  0.38970  0.58536  Biso   1.000  He
  Ne170    1.0000 0.93298  0.36010  0.59278  Biso   1.000  Ne
  Ne171    1.0000 0.10667  0.81049  0.91062  Biso   1.000  Ne
  He171    1.0000 0.10391  0.77694  0.90022  Biso   1.000  He
  He172    1.0000 0.11810  0.77584  0.87115  Biso   1.000  He
  Ne172    1.0000 0.12146  0.74642  0.85986  Biso   1.000  Ne
  Ne173    1.0000 0.46950  0.89744  0.52615  Biso   1.000  Ne
  He173    1.0000 0.45468  0.90898  0.55447  Biso   1.000  He
  He174    1.0000 0.47376  0.92209  0.57905  Biso   1.000  He
  Ne174    1.0000 0.45776  0.93380  0.60607  Biso   1.000  Ne
  Ne175    1.0000 0.45111  0.26973  0.26278  Biso   1.000  Ne
  He175    1.0000 0.45121  0.26780  0.23012  Biso   1.000  He
  He176    1.0000 0.45046  0.29671  0.21647  Biso   1.000  He
  Ne176    1.0000 0.44699  0.29504  0.18025  Biso   1.000  Ne
  Ne177    1.0000 0.85888  0.90663  0.10021  Biso   1.000  Ne
  He177    1.0000 0.85164  0.91019  0.13281  Biso   1.000  He
  He178    1.0000 0.83949  0.88202  0.15025  Biso   1.000  He
  Ne178    1.0000 0.83552  0.88731  0.18277  Biso   1.000  Ne
  Ne179    1.0000 0.10552  0.55992  0.69941  Biso   1.000  Ne
  He179    1.0000 0.13252  0.57878  0.70291  Biso   1.000  He
  He180    1.0000 0.15386  0.57062  0.72802  Biso   1.000  He
  Ne180    1.0000 0.14875  0.58857  0.75570  Biso   1.000  Ne
  Ne181    1.0000 0.91609  0.10481  0.07640  Biso   1.000  Ne
  He181    1.0000 0.89317  0.09967  0.09654  Biso   1.000  He
  He182    1.0000 0.86994  0.07425  0.08804  Biso   1.000  He
  Ne182    1.0000 0.84642  0.06919  0.10959  Biso   1.000  Ne
  Ne183    1.0000 0.88284  0.75300  0.38730  Biso   1.000  Ne
  He183    1.0000 0.91075  0.74479  0.40213  Biso   1.000  He
  He184    1.0000 0.90815  0.71658  0.41968  Biso   1.000  He
  Ne184    1.0000 0.93476  0.70794  0.43615  Biso   1.000  Ne
  Ne185    1.0000 0.74038  0.37343  0.88650  Biso   1.000  Ne
  He185    1.0000 0.75905  0.38401  0.91036  Biso   1.000  He
  He186    1.0000 0.75478  0.41679  0.91917  Biso   1.000  He
  Ne186    1.0000 0.77383  0.42685  0.94751  Biso   1.000  Ne
  Ne187    1.0000 0.58730  0.56616  0.94062  Biso   1.000  Ne
  He187    1.0000 0.61854  0.55452  0.93245  Biso   1.000  He
  He188    1.0000 0.64212  0.57879  0.93182  Biso   1.000  He
  Ne188    1.0000 0.67272  0.56869  0.92335  Biso   1.000  Ne
  Ne189    1.0000 0.50381  0.49806  0.94159  Biso   1.000  Ne
  He189    1.0000 0.49352  0.47877  0.96749  Biso   1.000  He
  He190    1.0000 0.48364  0.44805  0.95981  Biso   1.000  He
  Ne190    1.0000 0.46964  0.43044  0.98530  Biso   1.000  Ne
  Ne191    1.0000 0.68969  0.41041  0.82722  Biso   1.000  Ne
  He191    1.0000 0.65931  0.41618  0.83737  Biso   1.000  He
  He192    1.0000 0.63222  0.40168  0.82242  Biso   1.000  He
  Ne192    1.0000 0.60222  0.40921  0.83485  Biso   1.000  Ne
  Ne193    1.0000 0.84972  0.58878  0.28495  Biso   1.000  Ne
  He193    1.0000 0.86457  0.58683  0.31492  Biso   1.000  He
  He194    1.0000 0.84740  0.57273  0.33770  Biso   1.000  He
  Ne194    1.0000 0.86339  0.57901  0.36800  Biso   1.000  Ne
  Ne195    1.0000 0.63422  0.77757  0.72603  Biso   1.000  Ne
  He195    1.0000 0.62586  0.75112  0.70795  Biso   1.000  He
  He196    1.0000 0.64859  0.74398  0.68742  Biso   1.000  He
  Ne196    1.0000 0.64331  0.71896  0.67077  Biso   1.000  Ne
  Ne197    1.0000 0.11068  0.04146  0.05128  Biso   1.000  Ne
  He197    1.0000 0.07995  0.03573  0.04044  Biso   1.000  He
  He198    1.0000 0.06927  0.00397  0.04733  Biso   1.000  He
  Ne198    1.0000 0.04213  0.99367  0.03099  Biso   1.000  Ne
  Ne199    1.0000 0.92373  0.05745  0.88104  Biso   1.000  Ne
  He199    1.0000 0.90270  0.05317  0.90567  Biso   1.000  He
  He200    1.0000 0.87246  0.04906  0.89796  Biso   1.000  He
  Ne200    1.0000 0.85551  0.04470  0.92558  Biso   1.000  Ne
  Ne201    1.0000 0.07808  0.37893  0.58544  Biso   1.000  Ne
  He201    1.0000 0.05847  0.39835  0.56630  Biso   1.000  He
  He202    1.0000 0.04762  0.42677  0.57980  Biso   1.000  He
  Ne202    1.0000 0.02863  0.44460  0.56082  Biso   1.000  Ne
  Ne203    1.0000 0.88486  0.35571  0.43437  Biso   1.000  Ne
  He203    1.0000 0.85828  0.35796  0.41776  Biso   1.000  He
  He204    1.0000 0.83615  0.37635  0.43205  Biso   1.000  He
  Ne204    1.0000 0.81067  0.37975  0.41562  Biso   1.000  Ne
  Ne205    1.0000 0.14727  0.56174  0.42267  Biso   1.000  Ne
  He205    1.0000 0.14283  0.55308  0.38935  Biso   1.000  He
  He206    1.0000 0.14203  0.57667  0.36475  Biso   1.000  He
  Ne206    1.0000 0.13875  0.56247  0.33228  Biso   1.000  Ne
  Ne207    1.0000 0.69656  0.90699  0.75934  Biso   1.000  Ne
  He207    1.0000 0.66918  0.89405  0.76309  Biso   1.000  He
  He208    1.0000 0.66946  0.86397  0.77828  Biso   1.000  He
  Ne208    1.0000 0.64209  0.84813  0.78498  Biso   1.000  Ne
  Ne209    1.0000 0.92309  0.37915  0.35077  Biso   1.000  Ne
  He209    1.0000 0.93026  0.38361  0.31860  Biso   1.000  He
  He210    1.0000 0.91142  0.41009  0.30582  Biso   1.000  He
  Ne210    1.0000 0.91172  0.41259  0.27414  Biso   1.000  Ne
  Ne211    1.0000 0.80173  0.59419  0.66742  Biso   1.000  Ne
  He211    1.0000 0.79276  0.59279  0.70000  Biso   1.000  He
  He212    1.0000 0.76063  0.58564  0.70298  Biso   1.000  He
  Ne212    1.0000 0.74814  0.58167  0.73254  Biso   1.000  Ne
  Ne213    1.0000 0.80236  0.12582  0.93703  Biso   1.000  Ne
  He213    1.0000 0.82749  0.14060  0.91739  Biso   1.000  He
  He214    1.0000 0.85916  0.13779  0.92876  Biso   1.000  He
  Ne214    1.0000 0.88206  0.15027  0.90649  Biso   1.000  Ne
  Ne215    1.0000 0.09823  0.72964  0.11401  Biso   1.000  Ne
  He215    1.0000 0.09339  0.75844  0.09494  Biso   1.000  He
  He216    1.0000 0.10162  0.78531  0.10998  Biso   1.000  He
  Ne216    1.0000 0.10319  0.81409  0.08869  Biso   1.000  Ne
  Ne217    1.0000 0.93994  0.64474  0.71115  Biso   1.000  Ne
  He217    1.0000 0.93511  0.61022  0.70144  Biso   1.000  He
  He218    1.0000 0.92849  0.60496  0.67053  Biso   1.000  He
  Ne218    1.0000 0.92476  0.57242  0.66551  Biso   1.000  Ne
  Ne219    1.0000 0.68832  0.68256  0.91143  Biso   1.000  Ne
  He219    1.0000 0.66433  0.66348  0.92798  Biso   1.000  He
  He220    1.0000 0.63357  0.67763  0.92569  Biso   1.000  He
  Ne220    1.0000 0.61233  0.65600  0.93591  Biso   1.000  Ne
  Ne221    1.0000 0.59897  0.81059  0.65036  Biso   1.000  Ne
  He221    1.0000 0.61211  0.83158  0.67310  Biso   1.000  He
  He222    1.0000 0.59054  0.85494  0.68487  Biso   1.000  He
  Ne222    1.0000 0.60484  0.87528  0.70509  Biso   1.000  Ne
  Ne223    1.0000 0.65116  0.30125  0.91767  Biso   1.000  Ne
  He223    1.0000 0.62351  0.31364  0.93119  Biso   1.000  He
  He224    1.0000 0.59818  0.31853  0.90867  Biso   1.000  He
  Ne224    1.0000 0.57110  0.33540  0.92059  Biso   1.000  Ne
  Ne225    1.0000 0.71448  0.04823  0.40381  Biso   1.000  Ne
  He225    1.0000 0.71697  0.05565  0.37295  Biso   1.000  He
  He226    1.0000 0.69259  0.04286  0.35265  Biso   1.000  He
  Ne226    1.0000 0.69602  0.05122  0.32012  Biso   1.000  Ne
  Ne227    1.0000 0.62622  0.12669  0.34760  Biso   1.000  Ne
  He227    1.0000 0.61848  0.15428  0.36283  Biso   1.000  He
  He228    1.0000 0.61773  0.17912  0.33998  Biso   1.000  He
  Ne228    1.0000 0.60132  0.20615  0.34965  Biso   1.000  Ne
  Ne229    1.0000 0.41914  0.87124  0.45594  Biso   1.000  Ne
  He229    1.0000 0.42287  0.84260  0.44048  Biso   1.000  He
  He230    1.0000 0.39304  0.82731  0.43637  Biso   1.000  He
  Ne230    1.0000 0.39311  0.79911  0.41883  Biso   1.000  Ne
  Ne231    1.0000 0.98101  0.06801  0.94943  Biso   1.000  Ne
  He231    1.0000 0.97210  0.06669  0.98197  Biso   1.000  He
  He232    1.0000 0.99593  0.07184  0.00329  Biso   1.000  He
  Ne232    1.0000 0.98308  0.06898  0.03539  Biso   1.000  Ne
  Ne233    1.0000 0.68019  0.87926  0.31410  Biso   1.000  Ne
  He233    1.0000 0.67904  0.87235  0.28164  Biso   1.000  He
  He234    1.0000 0.69190  0.89591  0.26177  Biso   1.000  He
  Ne234    1.0000 0.69140  0.88583  0.22989  Biso   1.000  Ne
  Ne235    1.0000 0.64493  0.55795  0.09161  Biso   1.000  Ne
  He235    1.0000 0.61852  0.56229  0.10793  Biso   1.000  He
  He236    1.0000 0.62498  0.57210  0.14072  Biso   1.000  He
  Ne236    1.0000 0.59657  0.58328  0.15806  Biso   1.000  Ne
  Ne237    1.0000 0.82957  0.10898  0.75484  Biso   1.000  Ne
  He237    1.0000 0.83112  0.07601  0.75315  Biso   1.000  He
  He238    1.0000 0.84450  0.06471  0.72489  Biso   1.000  He
  Ne238    1.0000 0.84731  0.03345  0.72094  Biso   1.000  Ne
  Ne239    1.0000 0.57312  0.42894  0.95210  Biso   1.000  Ne
  He239    1.0000 0.59298  0.42701  0.92613  Biso   1.000  He
  He240    1.0000 0.62249  0.41642  0.93485  Biso   1.000  He
  Ne240    1.0000 0.64049  0.39445  0.91629  Biso   1.000  Ne
