data_image0
_cell_length_a       46.6828
_cell_length_b       46.6275
_cell_length_c       46.5897
_cell_angle_alpha    90
_cell_angle_beta     90
_cell_angle_gamma    90

_symmetry_space_group_name_H-M    "P 1"
_symmetry_int_tables_number       1

loop_
  _symmetry_equiv_pos_as_xyz
  'x, y, z'

loop_
  _atom_site_label
  _atom_site_occupancy
  _atom_site_fract_x
  _atom_site_fract_y
  _atom_site_fract_z
  _atom_site_thermal_displace_type
  _atom_site_B_iso_or_equiv
  _atom_site_type_symbol
  Ne1      1.0000 0.58823  0.08260  0.26375  Biso   1.000  Ne
  He1      1.0000 0.58475  0.10879  0.28625  Biso   1.000  He
  He2      1.0000 0.61250  0.12312  0.29825  Biso   1.000  He
  Ne2      1.0000 0.60822  0.14689  0.31988  Biso   1.000  Ne
  Ne3      1.0000 0.71010  0.11209  0.32341  Biso   1.000  Ne
  He3      1.0000 0.74021  0.10004  0.31908  Biso   1.000  He
  He4      1.0000 0.75648  0.08946  0.34518  Biso   1.000  He
  Ne4      1.0000 0.78802  0.07703  0.34038  Biso   1.000  Ne
  Ne5      1.0000 0.37555  0.26815  0.09759  Biso   1.000  Ne
  He5      1.0000 0.36472  0.29755  0.08877  Biso   1.000  He
  He6      1.0000 0.37980  0.32433  0.10284  Biso   1.000  He
  Ne6      1.0000 0.40907  0.33693  0.09003  Biso   1.000  Ne
  Ne7      1.0000 0.94408  0.57338  0.37939  Biso   1.000  Ne
  He7      1.0000 0.93471  0.60364  0.38120  Biso   1.000  He
  He8      1.0000 0.93456  0.61667  0.41278  Biso   1.000  He
  Ne8      1.0000 0.92362  0.64855  0.41354  Biso   1.000  Ne
  Ne9      1.0000 0.55923  0.56256  0.07271  Biso   1.000  Ne
  He9      1.0000 0.58499  0.57804  0.08798  Biso   1.000  He
  He10     1.0000 0.59833  0.60555  0.07217  Biso   1.000  He
  Ne10     1.0000 0.62394  0.61614  0.09007  Biso   1.000  Ne
  Ne11     1.0000 0.84029  0.59435  0.35324  Biso   1.000  Ne
  He11     1.0000 0.83175  0.61278  0.37583  Biso   1.000  He
  He12     1.0000 0.84208  0.60668  0.40571  Biso   1.000  He
  Ne12     1.0000 0.83434  0.62880  0.42836  Biso   1.000  Ne
  Ne13     1.0000 0.11895  0.20609  0.17475  Biso   1.000  Ne
  He13     1.0000 0.09564  0.18742  0.16094  Biso   1.000  He
  He14     1.0000 0.10232  0.18070  0.12919  Biso   1.000  He
  Ne14     1.0000 0.08184  0.15914  0.11170  Biso   1.000  Ne
  Ne15     1.0000 0.10339  0.18458  0.93583  Biso   1.000  Ne
  He15     1.0000 0.09373  0.15233  0.93059  Biso   1.000  He
  He16     1.0000 0.08614  0.14872  0.89848  Biso   1.000  He
  Ne16     1.0000 0.08305  0.11931  0.88822  Biso   1.000  Ne
  Ne17     1.0000 0.43170  0.10940  0.63353  Biso   1.000  Ne
  He17     1.0000 0.42758  0.14016  0.62586  Biso   1.000  He
  He18     1.0000 0.40942  0.14373  0.59659  Biso   1.000  He
  Ne18     1.0000 0.40687  0.17648  0.58939  Biso   1.000  Ne
  Ne19     1.0000 0.43162  0.12303  0.39650  Biso   1.000  Ne
  He19     1.0000 0.44886  0.09948  0.41380  Biso   1.000  He
  He20     1.0000 0.44877  0.09932  0.44795  Biso   1.000  He
  Ne20     1.0000 0.46926  0.08224  0.46477  Biso   1.000  Ne
  Ne21     1.0000 0.60480  0.05119  0.44762  Biso   1.000  Ne
  He21     1.0000 0.61832  0.07171  0.42587  Biso   1.000  He
  He22     1.0000 0.60466  0.07371  0.39649  Biso   1.000  He
  Ne22     1.0000 0.62284  0.09497  0.37677  Biso   1.000  Ne
  Ne23     1.0000 0.29626  0.91477  0.38488  Biso   1.000  Ne
  He23     1.0000 0.26398  0.90249  0.38549  Biso   1.000  He
  He24     1.0000 0.24150  0.92093  0.39657  Biso   1.000  He
  Ne24     1.0000 0.21364  0.90776  0.39749  Biso   1.000  Ne
  Ne25     1.0000 0.71662  0.21723  0.06768  Biso   1.000  Ne
  He25     1.0000 0.68928  0.19834  0.07073  Biso   1.000  He
  He26     1.0000 0.68136  0.18238  0.04056  Biso   1.000  He
  Ne26     1.0000 0.65377  0.16486  0.04022  Biso   1.000  Ne
  Ne27     1.0000 0.66841  0.06214  0.70792  Biso   1.000  Ne
  He27     1.0000 0.63821  0.05960  0.69222  Biso   1.000  He
  He28     1.0000 0.61948  0.08537  0.69408  Biso   1.000  He
  Ne28     1.0000 0.59174  0.08159  0.67722  Biso   1.000  Ne
  Ne29     1.0000 0.60616  0.58563  0.90237  Biso   1.000  Ne
  He29     1.0000 0.59950  0.58849  0.87176  Biso   1.000  He
  He30     1.0000 0.62382  0.59761  0.84967  Biso   1.000  He
  Ne30     1.0000 0.61547  0.59561  0.81588  Biso   1.000  Ne
  Ne31     1.0000 0.89645  0.59452  0.61421  Biso   1.000  Ne
  He31     1.0000 0.90762  0.58595  0.64559  Biso   1.000  He
  He32     1.0000 0.92060  0.61144  0.65789  Biso   1.000  He
  Ne32     1.0000 0.93675  0.60554  0.68673  Biso   1.000  Ne
  Ne33     1.0000 0.92363  0.43051  0.61689  Biso   1.000  Ne
  He33     1.0000 0.91785  0.39921  0.61955  Biso   1.000  He
  He34     1.0000 0.90878  0.38953  0.58730  Biso   1.000  He
  Ne34     1.0000 0.89983  0.35745  0.58132  Biso   1.000  Ne
  Ne35     1.0000 0.15319  0.40841  0.59045  Biso   1.000  Ne
  He35     1.0000 0.14030  0.38587  0.61123  Biso   1.000  He
  He36     1.0000 0.12877  0.39786  0.64042  Biso   1.000  He
  Ne36     1.0000 0.09477  0.40623  0.64328  Biso   1.000  Ne
  Ne37     1.0000 0.61322  0.42591  0.95063  Biso   1.000  Ne
  He37     1.0000 0.59155  0.41090  0.92611  Biso   1.000  He
  He38     1.0000 0.59569  0.38022  0.92292  Biso   1.000  He
  Ne38     1.0000 0.58239  0.36232  0.89870  Biso   1.000  Ne
  Ne39     1.0000 0.35361  0.43074  0.71578  Biso   1.000  Ne
  He39     1.0000 0.33957  0.43743  0.74388  Biso   1.000  He
  He40     1.0000 0.33234  0.41003  0.76451  Biso   1.000  He
  Ne40     1.0000 0.32306  0.41926  0.79520  Biso   1.000  Ne
