data_image0
_cell_length_a       46.6418
_cell_length_b       46.7801
_cell_length_c       46.6866
_cell_angle_alpha    90
_cell_angle_beta     90
_cell_angle_gamma    90

_symmetry_space_group_name_H-M    "P 1"
_symmetry_int_tables_number       1

loop_
  _symmetry_equiv_pos_as_xyz
  'x, y, z'

loop_
  _atom_site_label
  _atom_site_occupancy
  _atom_site_fract_x
  _atom_site_fract_y
  _atom_site_fract_z
  _atom_site_thermal_displace_type
  _atom_site_B_iso_or_equiv
  _atom_site_type_symbol
  Ne1      1.0000 0.64302  0.57673  0.10659  Biso   1.000  Ne
  He1      1.0000 0.61633  0.59298  0.11662  Biso   1.000  He
  He2      1.0000 0.58945  0.57763  0.11002  Biso   1.000  He
  Ne2      1.0000 0.56586  0.59356  0.12188  Biso   1.000  Ne
  Ne3      1.0000 0.34285  0.57477  0.89206  Biso   1.000  Ne
  He3      1.0000 0.35257  0.58111  0.92262  Biso   1.000  He
  He4      1.0000 0.37731  0.60229  0.92643  Biso   1.000  He
  Ne4      1.0000 0.38760  0.60593  0.95654  Biso   1.000  Ne
  Ne5      1.0000 0.85295  0.90989  0.93530  Biso   1.000  Ne
  He5      1.0000 0.88176  0.91707  0.95195  Biso   1.000  He
  He6      1.0000 0.90230  0.89218  0.95330  Biso   1.000  He
  Ne6      1.0000 0.93283  0.89605  0.96513  Biso   1.000  Ne
  Ne7      1.0000 0.84486  0.67677  0.44067  Biso   1.000  Ne
  He7      1.0000 0.83707  0.64805  0.45217  Biso   1.000  He
  He8      1.0000 0.85895  0.62492  0.44400  Biso   1.000  He
  Ne8      1.0000 0.84996  0.59493  0.45205  Biso   1.000  Ne
  Ne9      1.0000 0.95400  0.90761  0.09342  Biso   1.000  Ne
  He9      1.0000 0.94872  0.91852  0.12360  Biso   1.000  He
  He10     1.0000 0.95380  0.89611  0.14854  Biso   1.000  He
  Ne10     1.0000 0.93936  0.90405  0.17882  Biso   1.000  Ne
  Ne11     1.0000 0.56539  0.50650  0.02368  Biso   1.000  Ne
  He11     1.0000 0.55960  0.49293  0.05357  Biso   1.000  He
  He12     1.0000 0.58504  0.47378  0.06606  Biso   1.000  He
  Ne12     1.0000 0.57827  0.46277  0.09507  Biso   1.000  Ne
  Ne13     1.0000 0.92326  0.68218  0.64529  Biso   1.000  Ne
  He13     1.0000 0.91823  0.65389  0.66702  Biso   1.000  He
  He14     1.0000 0.91382  0.66015  0.69754  Biso   1.000  He
  Ne14     1.0000 0.90906  0.63497  0.71931  Biso   1.000  Ne
  Ne15     1.0000 0.09147  0.58293  0.58986  Biso   1.000  Ne
  He15     1.0000 0.07942  0.61370  0.59722  Biso   1.000  He
  He16     1.0000 0.10086  0.63952  0.60354  Biso   1.000  He
  Ne16     1.0000 0.08598  0.66819  0.60254  Biso   1.000  Ne
  Ne17     1.0000 0.80277  0.33017  0.44768  Biso   1.000  Ne
  He17     1.0000 0.83117  0.32204  0.43373  Biso   1.000  He
  He18     1.0000 0.85641  0.34291  0.44318  Biso   1.000  He
  Ne18     1.0000 0.88728  0.33156  0.43300  Biso   1.000  Ne
  Ne19     1.0000 0.78130  0.92200  0.57043  Biso   1.000  Ne
  He19     1.0000 0.74828  0.90965  0.56601  Biso   1.000  He
  He20     1.0000 0.72582  0.91843  0.59149  Biso   1.000  He
  Ne20     1.0000 0.69995  0.90024  0.58836  Biso   1.000  Ne
