data_image0
_cell_length_a       46.8992
_cell_length_b       46.6504
_cell_length_c       46.5873
_cell_angle_alpha    90
_cell_angle_beta     90
_cell_angle_gamma    90

_symmetry_space_group_name_H-M    "P 1"
_symmetry_int_tables_number       1

loop_
  _symmetry_equiv_pos_as_xyz
  'x, y, z'

loop_
  _atom_site_label
  _atom_site_occupancy
  _atom_site_fract_x
  _atom_site_fract_y
  _atom_site_fract_z
  _atom_site_thermal_displace_type
  _atom_site_B_iso_or_equiv
  _atom_site_type_symbol
  Ne1      1.0000 0.57363  0.59296  0.28334  Biso   1.000  Ne
  He1      1.0000 0.59592  0.61587  0.29361  Biso   1.000  He
  He2      1.0000 0.58674  0.64998  0.28957  Biso   1.000  He
  Ne2      1.0000 0.60651  0.67164  0.30378  Biso   1.000  Ne
  Ne3      1.0000 0.35320  0.57475  0.80530  Biso   1.000  Ne
  He3      1.0000 0.38545  0.58261  0.80020  Biso   1.000  He
  He4      1.0000 0.40199  0.59430  0.82700  Biso   1.000  He
  Ne4      1.0000 0.41622  0.56897  0.84516  Biso   1.000  Ne
  Ne5      1.0000 0.90086  0.36268  0.70441  Biso   1.000  Ne
  He5      1.0000 0.90931  0.35634  0.67324  Biso   1.000  He
  He6      1.0000 0.89603  0.32900  0.65697  Biso   1.000  He
  Ne6      1.0000 0.90650  0.32236  0.62332  Biso   1.000  Ne
  Ne7      1.0000 0.91999  0.92512  0.99598  Biso   1.000  Ne
  He7      1.0000 0.90907  0.92082  0.96476  Biso   1.000  He
  He8      1.0000 0.93332  0.92597  0.94101  Biso   1.000  He
  Ne8      1.0000 0.92761  0.92344  0.90886  Biso   1.000  Ne
  Ne9      1.0000 0.59513  0.45651  0.04752  Biso   1.000  Ne
  He9      1.0000 0.57963  0.47076  0.07114  Biso   1.000  He
  He10     1.0000 0.56228  0.45191  0.09187  Biso   1.000  He
  Ne10     1.0000 0.55227  0.46749  0.11898  Biso   1.000  Ne
  Ne11     1.0000 0.02483  0.30757  0.13103  Biso   1.000  Ne
  He11     1.0000 0.01450  0.30972  0.10024  Biso   1.000  He
  He12     1.0000 0.99012  0.28722  0.09275  Biso   1.000  He
  Ne12     1.0000 0.98730  0.28378  0.06175  Biso   1.000  Ne
  Ne13     1.0000 0.34287  0.12978  0.45383  Biso   1.000  Ne
  He13     1.0000 0.34603  0.11195  0.42601  Biso   1.000  He
  He14     1.0000 0.35997  0.08292  0.43201  Biso   1.000  He
  Ne14     1.0000 0.36449  0.06024  0.40872  Biso   1.000  Ne
  Ne15     1.0000 0.74673  0.90776  0.86332  Biso   1.000  Ne
  He15     1.0000 0.72007  0.92598  0.85505  Biso   1.000  He
  He16     1.0000 0.71194  0.91900  0.82174  Biso   1.000  He
  Ne16     1.0000 0.68048  0.92873  0.81084  Biso   1.000  Ne
  Ne17     1.0000 0.22303  0.09436  0.12162  Biso   1.000  Ne
  He17     1.0000 0.23940  0.09268  0.09414  Biso   1.000  He
  He18     1.0000 0.26300  0.11703  0.08684  Biso   1.000  He
  Ne18     1.0000 0.27954  0.11153  0.06013  Biso   1.000  Ne
  Ne19     1.0000 0.08895  0.78326  0.30950  Biso   1.000  Ne
  He19     1.0000 0.07860  0.81548  0.30667  Biso   1.000  He
  He20     1.0000 0.05175  0.82394  0.32455  Biso   1.000  He
  Ne20     1.0000 0.04643  0.85433  0.32117  Biso   1.000  Ne
  Ne21     1.0000 0.54665  0.03159  0.44877  Biso   1.000  Ne
  He21     1.0000 0.56701  0.05686  0.45386  Biso   1.000  He
  He22     1.0000 0.55419  0.08301  0.47038  Biso   1.000  He
  Ne22     1.0000 0.57957  0.10558  0.47820  Biso   1.000  Ne
  Ne23     1.0000 0.58280  0.56146  0.88021  Biso   1.000  Ne
  He23     1.0000 0.57779  0.59101  0.86397  Biso   1.000  He
  He24     1.0000 0.57891  0.61815  0.88360  Biso   1.000  He
  Ne24     1.0000 0.57161  0.64548  0.86957  Biso   1.000  Ne
  Ne25     1.0000 0.64777  0.85530  0.59845  Biso   1.000  Ne
  He25     1.0000 0.66507  0.87187  0.62183  Biso   1.000  He
  He26     1.0000 0.69414  0.88124  0.61329  Biso   1.000  He
  Ne26     1.0000 0.71607  0.87914  0.63910  Biso   1.000  Ne
  Ne27     1.0000 0.29244  0.40735  0.82186  Biso   1.000  Ne
  He27     1.0000 0.31959  0.41516  0.80732  Biso   1.000  He
  He28     1.0000 0.31350  0.42100  0.77478  Biso   1.000  He
  Ne28     1.0000 0.33974  0.43114  0.75686  Biso   1.000  Ne
  Ne29     1.0000 0.84851  0.12682  0.26569  Biso   1.000  Ne
  He29     1.0000 0.82149  0.12289  0.24835  Biso   1.000  He
  He30     1.0000 0.80603  0.09652  0.25766  Biso   1.000  He
  Ne30     1.0000 0.77928  0.08900  0.24039  Biso   1.000  Ne
  Ne31     1.0000 0.44272  0.26675  0.12012  Biso   1.000  Ne
  He31     1.0000 0.45122  0.28599  0.14517  Biso   1.000  He
  He32     1.0000 0.43266  0.31187  0.15481  Biso   1.000  He
  Ne32     1.0000 0.44370  0.32674  0.18242  Biso   1.000  Ne
  Ne33     1.0000 0.65166  0.38344  0.26877  Biso   1.000  Ne
  He33     1.0000 0.62280  0.38778  0.28385  Biso   1.000  He
  He34     1.0000 0.60820  0.41821  0.27502  Biso   1.000  He
  Ne34     1.0000 0.57557  0.41738  0.28042  Biso   1.000  Ne
  Ne35     1.0000 0.09505  0.82597  0.22071  Biso   1.000  Ne
  He35     1.0000 0.08648  0.85193  0.20352  Biso   1.000  He
  He36     1.0000 0.07275  0.87749  0.21761  Biso   1.000  He
  Ne36     1.0000 0.06863  0.89999  0.19398  Biso   1.000  Ne
  Ne37     1.0000 0.89968  0.83279  0.10679  Biso   1.000  Ne
  He37     1.0000 0.91013  0.80411  0.09625  Biso   1.000  He
  He38     1.0000 0.89499  0.77578  0.10624  Biso   1.000  He
  Ne38     1.0000 0.91004  0.76036  0.13320  Biso   1.000  Ne
  Ne39     1.0000 0.14405  0.89462  0.15859  Biso   1.000  Ne
  He39     1.0000 0.17378  0.88031  0.14983  Biso   1.000  He
  He40     1.0000 0.18833  0.89138  0.12153  Biso   1.000  He
  Ne40     1.0000 0.21523  0.87541  0.11371  Biso   1.000  Ne
  Ne41     1.0000 0.42701  0.89915  0.39717  Biso   1.000  Ne
  He41     1.0000 0.41355  0.89474  0.36866  Biso   1.000  He
  He42     1.0000 0.41323  0.86320  0.35858  Biso   1.000  He
  Ne42     1.0000 0.39578  0.85782  0.33051  Biso   1.000  Ne
  Ne43     1.0000 0.58912  0.40307  0.85939  Biso   1.000  Ne
  He43     1.0000 0.58634  0.40399  0.82488  Biso   1.000  He
  He44     1.0000 0.61558  0.40805  0.80814  Biso   1.000  He
  Ne44     1.0000 0.61655  0.40780  0.77434  Biso   1.000  Ne
  Ne45     1.0000 0.56884  0.04767  0.56360  Biso   1.000  Ne
  He45     1.0000 0.56179  0.02501  0.54330  Biso   1.000  He
  He46     1.0000 0.58717  0.01602  0.52693  Biso   1.000  He
  Ne46     1.0000 0.58001  0.98813  0.50858  Biso   1.000  Ne
  Ne47     1.0000 0.81202  0.26690  0.95066  Biso   1.000  Ne
  He47     1.0000 0.78429  0.26775  0.93437  Biso   1.000  He
  He48     1.0000 0.78391  0.24745  0.90995  Biso   1.000  He
  Ne48     1.0000 0.75561  0.24794  0.88886  Biso   1.000  Ne
  Ne49     1.0000 0.45772  0.81252  0.81982  Biso   1.000  Ne
  He49     1.0000 0.43693  0.81929  0.84445  Biso   1.000  He
  He50     1.0000 0.40629  0.80913  0.84161  Biso   1.000  He
  Ne50     1.0000 0.39202  0.81069  0.87124  Biso   1.000  Ne
  Ne51     1.0000 0.08559  0.47213  0.57905  Biso   1.000  Ne
  He51     1.0000 0.07110  0.49829  0.59218  Biso   1.000  He
  He52     1.0000 0.04893  0.51402  0.57518  Biso   1.000  He
  Ne52     1.0000 0.06487  0.53770  0.55521  Biso   1.000  Ne
  Ne53     1.0000 0.54577  0.74444  0.34812  Biso   1.000  Ne
  He53     1.0000 0.53701  0.71087  0.36040  Biso   1.000  He
  He54     1.0000 0.50923  0.69839  0.34940  Biso   1.000  He
  Ne54     1.0000 0.50511  0.66705  0.36097  Biso   1.000  Ne
  Ne55     1.0000 0.84133  0.58675  0.78234  Biso   1.000  Ne
  He55     1.0000 0.82665  0.57765  0.75340  Biso   1.000  He
  He56     1.0000 0.80098  0.59779  0.74287  Biso   1.000  He
  Ne56     1.0000 0.78471  0.58450  0.71589  Biso   1.000  Ne
  Ne57     1.0000 0.34186  0.64423  0.10412  Biso   1.000  Ne
  He57     1.0000 0.35687  0.61777  0.09609  Biso   1.000  He
  He58     1.0000 0.36208  0.59644  0.12166  Biso   1.000  He
  Ne58     1.0000 0.38260  0.57067  0.11171  Biso   1.000  Ne
  Ne59     1.0000 0.55673  0.10463  0.62195  Biso   1.000  Ne
  He59     1.0000 0.58061  0.12670  0.61882  Biso   1.000  He
  He60     1.0000 0.61013  0.11578  0.63165  Biso   1.000  He
  Ne60     1.0000 0.63472  0.13659  0.62448  Biso   1.000  Ne
  Ne61     1.0000 0.44525  0.35160  0.74945  Biso   1.000  Ne
  He61     1.0000 0.46041  0.37987  0.74456  Biso   1.000  He
  He62     1.0000 0.44541  0.40571  0.75803  Biso   1.000  He
  Ne62     1.0000 0.46403  0.43425  0.75668  Biso   1.000  Ne
  Ne63     1.0000 0.79467  0.68543  0.43452  Biso   1.000  Ne
  He63     1.0000 0.76820  0.66582  0.44627  Biso   1.000  He
  He64     1.0000 0.73773  0.67900  0.43836  Biso   1.000  He
  Ne64     1.0000 0.71145  0.66209  0.44856  Biso   1.000  Ne
  Ne65     1.0000 0.15600  0.41904  0.40490  Biso   1.000  Ne
  He65     1.0000 0.13876  0.40859  0.43055  Biso   1.000  He
  He66     1.0000 0.10701  0.41813  0.43065  Biso   1.000  He
  Ne66     1.0000 0.08754  0.40853  0.45625  Biso   1.000  Ne
  Ne67     1.0000 0.83077  0.38222  0.44656  Biso   1.000  Ne
  He67     1.0000 0.83496  0.38948  0.41226  Biso   1.000  He
  He68     1.0000 0.84398  0.36283  0.39573  Biso   1.000  He
  Ne68     1.0000 0.84471  0.37238  0.36286  Biso   1.000  Ne
  Ne69     1.0000 0.42608  0.02284  0.46235  Biso   1.000  Ne
  He69     1.0000 0.44352  0.04746  0.47786  Biso   1.000  He
  He70     1.0000 0.45552  0.06945  0.45722  Biso   1.000  He
  Ne70     1.0000 0.46936  0.09733  0.47097  Biso   1.000  Ne
  Ne71     1.0000 0.66609  0.08196  0.45535  Biso   1.000  Ne
  He71     1.0000 0.69563  0.09184  0.44261  Biso   1.000  He
  He72     1.0000 0.70619  0.06713  0.42050  Biso   1.000  He
  Ne72     1.0000 0.73772  0.06899  0.41087  Biso   1.000  Ne
  Ne73     1.0000 0.26880  0.41793  0.41281  Biso   1.000  Ne
  He73     1.0000 0.24786  0.39864  0.43330  Biso   1.000  He
  He74     1.0000 0.23817  0.36901  0.41933  Biso   1.000  He
  Ne74     1.0000 0.21233  0.35404  0.43930  Biso   1.000  Ne
  Ne75     1.0000 0.13827  0.92328  0.87432  Biso   1.000  Ne
  He75     1.0000 0.14890  0.91393  0.90554  Biso   1.000  He
  He76     1.0000 0.17817  0.90744  0.90502  Biso   1.000  He
  Ne76     1.0000 0.18659  0.89239  0.93216  Biso   1.000  Ne
  Ne77     1.0000 0.37641  0.12437  0.73343  Biso   1.000  Ne
  He77     1.0000 0.38402  0.15014  0.75100  Biso   1.000  He
  He78     1.0000 0.39630  0.17870  0.74032  Biso   1.000  He
  Ne78     1.0000 0.39977  0.20350  0.76129  Biso   1.000  Ne
  Ne79     1.0000 0.73468  0.32881  0.31938  Biso   1.000  Ne
  He79     1.0000 0.72794  0.35389  0.33708  Biso   1.000  He
  He80     1.0000 0.75424  0.37768  0.33705  Biso   1.000  He
  Ne80     1.0000 0.75171  0.40324  0.35888  Biso   1.000  Ne
  Ne81     1.0000 0.09736  0.09078  0.84074  Biso   1.000  Ne
  He81     1.0000 0.08121  0.09851  0.86865  Biso   1.000  He
  He82     1.0000 0.09202  0.08228  0.89669  Biso   1.000  He
  Ne82     1.0000 0.07371  0.09086  0.92425  Biso   1.000  Ne
  Ne83     1.0000 0.58296  0.13264  0.38081  Biso   1.000  Ne
  He83     1.0000 0.59373  0.16600  0.37491  Biso   1.000  He
  He84     1.0000 0.59140  0.17550  0.34524  Biso   1.000  He
  Ne84     1.0000 0.60443  0.20409  0.34220  Biso   1.000  Ne
  Ne85     1.0000 0.91492  0.54551  0.35534  Biso   1.000  Ne
  He85     1.0000 0.90820  0.57680  0.34518  Biso   1.000  He
  He86     1.0000 0.90267  0.59851  0.37068  Biso   1.000  He
  Ne86     1.0000 0.89440  0.63022  0.36206  Biso   1.000  Ne
  Ne87     1.0000 0.76488  0.54625  0.42378  Biso   1.000  Ne
  He87     1.0000 0.79508  0.55910  0.42315  Biso   1.000  He
  He88     1.0000 0.81432  0.55220  0.44951  Biso   1.000  He
  Ne88     1.0000 0.84593  0.56247  0.44325  Biso   1.000  Ne
  Ne89     1.0000 0.15782  0.61383  0.62060  Biso   1.000  Ne
  He89     1.0000 0.13048  0.60453  0.60728  Biso   1.000  He
  He90     1.0000 0.10357  0.61571  0.62183  Biso   1.000  He
  Ne90     1.0000 0.08988  0.59581  0.64472  Biso   1.000  Ne
  Ne91     1.0000 0.67268  0.58073  0.86603  Biso   1.000  Ne
  He91     1.0000 0.66137  0.57132  0.89706  Biso   1.000  He
  He92     1.0000 0.66806  0.59495  0.91709  Biso   1.000  He
  Ne92     1.0000 0.65452  0.59073  0.94722  Biso   1.000  Ne
  Ne93     1.0000 0.44740  0.62001  0.71891  Biso   1.000  Ne
  He93     1.0000 0.41905  0.63499  0.70904  Biso   1.000  He
  He94     1.0000 0.42049  0.66637  0.70577  Biso   1.000  He
  Ne94     1.0000 0.39068  0.68136  0.69939  Biso   1.000  Ne
  Ne95     1.0000 0.12559  0.19440  0.85257  Biso   1.000  Ne
  He95     1.0000 0.11797  0.22586  0.84280  Biso   1.000  He
  He96     1.0000 0.11209  0.24443  0.86658  Biso   1.000  He
  Ne96     1.0000 0.11616  0.27718  0.85888  Biso   1.000  Ne
  Ne97     1.0000 0.22180  0.30056  0.06951  Biso   1.000  Ne
  He97     1.0000 0.20580  0.28942  0.09627  Biso   1.000  He
  He98     1.0000 0.18399  0.26775  0.08982  Biso   1.000  He
  Ne98     1.0000 0.16712  0.25635  0.11592  Biso   1.000  Ne
  Ne99     1.0000 0.84849  0.56901  0.60654  Biso   1.000  Ne
  He99     1.0000 0.86212  0.56125  0.63801  Biso   1.000  He
  He100    1.0000 0.87269  0.58772  0.65386  Biso   1.000  He
  Ne100    1.0000 0.88702  0.58052  0.68542  Biso   1.000  Ne
  Ne101    1.0000 0.08512  0.68328  0.36843  Biso   1.000  Ne
  He101    1.0000 0.09629  0.66080  0.39332  Biso   1.000  He
  He102    1.0000 0.08738  0.67039  0.42358  Biso   1.000  He
  Ne102    1.0000 0.10164  0.65195  0.44830  Biso   1.000  Ne
  Ne103    1.0000 0.09817  0.77993  0.94303  Biso   1.000  Ne
  He103    1.0000 0.09451  0.81280  0.94734  Biso   1.000  He
  He104    1.0000 0.08754  0.83090  0.92009  Biso   1.000  He
  Ne104    1.0000 0.08603  0.86364  0.92669  Biso   1.000  Ne
  Ne105    1.0000 0.35312  0.42349  0.24010  Biso   1.000  Ne
  He105    1.0000 0.32069  0.41780  0.25166  Biso   1.000  He
  He106    1.0000 0.32277  0.40619  0.28143  Biso   1.000  He
  Ne106    1.0000 0.29439  0.40874  0.29692  Biso   1.000  Ne
  Ne107    1.0000 0.69058  0.40441  0.92952  Biso   1.000  Ne
  He107    1.0000 0.70754  0.37791  0.92764  Biso   1.000  He
  He108    1.0000 0.68877  0.34994  0.93310  Biso   1.000  He
  Ne108    1.0000 0.70344  0.31880  0.93178  Biso   1.000  Ne
  Ne109    1.0000 0.18184  0.60544  0.40379  Biso   1.000  Ne
  He109    1.0000 0.16225  0.58419  0.41937  Biso   1.000  He
  He110    1.0000 0.15202  0.59435  0.45020  Biso   1.000  He
  Ne110    1.0000 0.13175  0.57409  0.46784  Biso   1.000  Ne
  Ne111    1.0000 0.96415  0.04474  0.10127  Biso   1.000  Ne
  He111    1.0000 0.93222  0.05042  0.09236  Biso   1.000  He
  He112    1.0000 0.91378  0.06885  0.11438  Biso   1.000  He
  Ne112    1.0000 0.88350  0.07279  0.10716  Biso   1.000  Ne
  Ne113    1.0000 0.96152  0.25403  0.61930  Biso   1.000  Ne
  He113    1.0000 0.96910  0.23052  0.59764  Biso   1.000  He
  He114    1.0000 0.94562  0.21090  0.58395  Biso   1.000  He
  Ne114    1.0000 0.95574  0.19476  0.55496  Biso   1.000  Ne
  Ne115    1.0000 0.58936  0.19650  0.78915  Biso   1.000  Ne
  He115    1.0000 0.56300  0.19254  0.80795  Biso   1.000  He
  He116    1.0000 0.55094  0.16153  0.80412  Biso   1.000  He
  Ne116    1.0000 0.52610  0.15461  0.82277  Biso   1.000  Ne
  Ne117    1.0000 0.85227  0.19922  0.92036  Biso   1.000  Ne
  He117    1.0000 0.87012  0.17536  0.93312  Biso   1.000  He
  He118    1.0000 0.89995  0.18309  0.94633  Biso   1.000  He
  Ne118    1.0000 0.92124  0.15776  0.95373  Biso   1.000  Ne
  Ne119    1.0000 0.76199  0.86620  0.96688  Biso   1.000  Ne
  He119    1.0000 0.78549  0.87402  0.94405  Biso   1.000  He
  He120    1.0000 0.81342  0.88807  0.95788  Biso   1.000  He
  Ne120    1.0000 0.83637  0.89925  0.93687  Biso   1.000  Ne
  Ne121    1.0000 0.38521  0.68958  0.19454  Biso   1.000  Ne
  He121    1.0000 0.40368  0.66277  0.18581  Biso   1.000  He
  He122    1.0000 0.41810  0.66473  0.15713  Biso   1.000  He
  Ne122    1.0000 0.42670  0.63704  0.14477  Biso   1.000  Ne
  Ne123    1.0000 0.56126  0.86137  0.58030  Biso   1.000  Ne
  He123    1.0000 0.57004  0.88778  0.59415  Biso   1.000  He
  He124    1.0000 0.56333  0.91298  0.57427  Biso   1.000  He
  Ne124    1.0000 0.56934  0.94317  0.58617  Biso   1.000  Ne
  Ne125    1.0000 0.83748  0.90059  0.14068  Biso   1.000  Ne
  He125    1.0000 0.87011  0.90022  0.14048  Biso   1.000  He
  He126    1.0000 0.87996  0.91228  0.16931  Biso   1.000  He
  Ne126    1.0000 0.91428  0.91334  0.17073  Biso   1.000  Ne
  Ne127    1.0000 0.39858  0.37695  0.87503  Biso   1.000  Ne
  He127    1.0000 0.41970  0.35870  0.85401  Biso   1.000  He
  He128    1.0000 0.40795  0.33422  0.83309  Biso   1.000  He
  Ne128    1.0000 0.43106  0.31908  0.81500  Biso   1.000  Ne
  Ne129    1.0000 0.41332  0.91085  0.71701  Biso   1.000  Ne
  He129    1.0000 0.40551  0.88895  0.74159  Biso   1.000  He
  He130    1.0000 0.38509  0.90169  0.76521  Biso   1.000  He
  Ne130    1.0000 0.37397  0.88013  0.78911  Biso   1.000  Ne
  Ne131    1.0000 0.93585  0.39171  0.36507  Biso   1.000  Ne
  He131    1.0000 0.94044  0.36963  0.34377  Biso   1.000  He
  He132    1.0000 0.93495  0.33654  0.35552  Biso   1.000  He
  Ne132    1.0000 0.93450  0.31492  0.33000  Biso   1.000  Ne
  Ne133    1.0000 0.60533  0.36210  0.20514  Biso   1.000  Ne
  He133    1.0000 0.62933  0.37742  0.18995  Biso   1.000  He
  He134    1.0000 0.66021  0.36437  0.19332  Biso   1.000  He
  Ne134    1.0000 0.68508  0.38310  0.17929  Biso   1.000  Ne
  Ne135    1.0000 0.02411  0.45332  0.52595  Biso   1.000  Ne
  He135    1.0000 0.04413  0.46028  0.49906  Biso   1.000  He
  He136    1.0000 0.02870  0.48498  0.48045  Biso   1.000  He
  Ne136    1.0000 0.04565  0.49713  0.45395  Biso   1.000  Ne
  Ne137    1.0000 0.05484  0.57625  0.45973  Biso   1.000  Ne
  He137    1.0000 0.05409  0.58354  0.42586  Biso   1.000  He
  He138    1.0000 0.07522  0.56233  0.41029  Biso   1.000  He
  Ne138    1.0000 0.08044  0.56871  0.37791  Biso   1.000  Ne
  Ne139    1.0000 0.09257  0.40685  0.74659  Biso   1.000  Ne
  He139    1.0000 0.08533  0.42246  0.71571  Biso   1.000  He
  He140    1.0000 0.09968  0.40693  0.68872  Biso   1.000  He
  Ne140    1.0000 0.08925  0.42159  0.65807  Biso   1.000  Ne
  Ne141    1.0000 0.84137  0.09177  0.82943  Biso   1.000  Ne
  He141    1.0000 0.84896  0.08461  0.86052  Biso   1.000  He
  He142    1.0000 0.82521  0.06863  0.87669  Biso   1.000  He
  Ne142    1.0000 0.83574  0.05908  0.90773  Biso   1.000  Ne
  Ne143    1.0000 0.90892  0.19150  0.42933  Biso   1.000  Ne
  He143    1.0000 0.93799  0.19162  0.44659  Biso   1.000  He
  He144    1.0000 0.96043  0.21721  0.43574  Biso   1.000  He
  Ne144    1.0000 0.95657  0.24488  0.45426  Biso   1.000  Ne
  Ne145    1.0000 0.31375  0.91397  0.63771  Biso   1.000  Ne
  He145    1.0000 0.34069  0.92197  0.62278  Biso   1.000  He
  He146    1.0000 0.36445  0.92812  0.64466  Biso   1.000  He
  Ne146    1.0000 0.39121  0.93906  0.62842  Biso   1.000  Ne
  Ne147    1.0000 0.09127  0.04421  0.98719  Biso   1.000  Ne
  He147    1.0000 0.06362  0.03491  0.00381  Biso   1.000  He
  He148    1.0000 0.05526  0.05712  0.02535  Biso   1.000  He
  Ne148    1.0000 0.02637  0.04795  0.04267  Biso   1.000  Ne
  Ne149    1.0000 0.78381  0.31834  0.42269  Biso   1.000  Ne
  He149    1.0000 0.75734  0.33086  0.43069  Biso   1.000  He
  He150    1.0000 0.75990  0.34114  0.46303  Biso   1.000  He
  Ne150    1.0000 0.73297  0.35218  0.47882  Biso   1.000  Ne
  Ne151    1.0000 0.29300  0.93036  0.88898  Biso   1.000  Ne
  He151    1.0000 0.27010  0.93122  0.86605  Biso   1.000  He
  He152    1.0000 0.27399  0.90425  0.84715  Biso   1.000  He
  Ne152    1.0000 0.24972  0.90027  0.82440  Biso   1.000  Ne
  Ne153    1.0000 0.22498  0.23132  0.61696  Biso   1.000  Ne
  He153    1.0000 0.23824  0.21288  0.59329  Biso   1.000  He
  He154    1.0000 0.21723  0.19572  0.57423  Biso   1.000  He
  Ne154    1.0000 0.23198  0.17375  0.55365  Biso   1.000  Ne
  Ne155    1.0000 0.94264  0.96768  0.09740  Biso   1.000  Ne
  He155    1.0000 0.95026  0.93409  0.09335  Biso   1.000  He
  He156    1.0000 0.97094  0.92988  0.06706  Biso   1.000  He
  Ne156    1.0000 0.98335  0.89887  0.06761  Biso   1.000  Ne
  Ne157    1.0000 0.98846  0.03109  0.95333  Biso   1.000  Ne
  He157    1.0000 0.95935  0.01596  0.94471  Biso   1.000  He
  He158    1.0000 0.93299  0.02448  0.96437  Biso   1.000  He
  Ne158    1.0000 0.91394  0.04682  0.94594  Biso   1.000  Ne
  Ne159    1.0000 0.29134  0.84680  0.45814  Biso   1.000  Ne
  He159    1.0000 0.30153  0.87321  0.43898  Biso   1.000  He
  He160    1.0000 0.31668  0.86539  0.40973  Biso   1.000  He
  Ne160    1.0000 0.32718  0.89356  0.39382  Biso   1.000  Ne
  Ne161    1.0000 0.34270  0.40658  0.14865  Biso   1.000  Ne
  He161    1.0000 0.34811  0.38167  0.12901  Biso   1.000  He
  He162    1.0000 0.35919  0.35653  0.14321  Biso   1.000  He
  Ne162    1.0000 0.36764  0.33108  0.12253  Biso   1.000  Ne
  Ne163    1.0000 0.78989  0.83491  0.24279  Biso   1.000  Ne
  He163    1.0000 0.80192  0.83647  0.27364  Biso   1.000  He
  He164    1.0000 0.79805  0.80761  0.29193  Biso   1.000  He
  Ne164    1.0000 0.81617  0.81265  0.31987  Biso   1.000  Ne
  Ne165    1.0000 0.30783  0.09749  0.60133  Biso   1.000  Ne
  He165    1.0000 0.31126  0.09343  0.63482  Biso   1.000  He
  He166    1.0000 0.28282  0.08424  0.65109  Biso   1.000  He
  Ne166    1.0000 0.29033  0.08393  0.68468  Biso   1.000  Ne
  Ne167    1.0000 0.89866  0.42036  0.62613  Biso   1.000  Ne
  He167    1.0000 0.90844  0.43052  0.59639  Biso   1.000  He
  He168    1.0000 0.93566  0.41352  0.58838  Biso   1.000  He
  Ne168    1.0000 0.94682  0.42360  0.55940  Biso   1.000  Ne
  Ne169    1.0000 0.59993  0.57335  0.08428  Biso   1.000  Ne
  He169    1.0000 0.56778  0.56550  0.08220  Biso   1.000  He
  He170    1.0000 0.55110  0.57252  0.05579  Biso   1.000  He
  Ne170    1.0000 0.52157  0.55793  0.05567  Biso   1.000  Ne
  Ne171    1.0000 0.77815  0.91585  0.18790  Biso   1.000  Ne
  He171    1.0000 0.75798  0.92815  0.21123  Biso   1.000  He
  He172    1.0000 0.72832  0.91241  0.21366  Biso   1.000  He
  Ne172    1.0000 0.70925  0.92802  0.23727  Biso   1.000  Ne
  Ne173    1.0000 0.91028  0.51751  0.58043  Biso   1.000  Ne
  He173    1.0000 0.93251  0.53692  0.57029  Biso   1.000  He
  He174    1.0000 0.92651  0.56761  0.57998  Biso   1.000  He
  Ne174    1.0000 0.94912  0.59021  0.57271  Biso   1.000  Ne
  Ne175    1.0000 0.11552  0.04530  0.12541  Biso   1.000  Ne
  He175    1.0000 0.09062  0.06546  0.13015  Biso   1.000  He
  He176    1.0000 0.09654  0.09762  0.12885  Biso   1.000  He
  Ne176    1.0000 0.07439  0.11662  0.13816  Biso   1.000  Ne
  Ne177    1.0000 0.00522  0.95392  0.98407  Biso   1.000  Ne
  He177    1.0000 0.03685  0.94364  0.98261  Biso   1.000  He
  He178    1.0000 0.04475  0.90998  0.99351  Biso   1.000  He
  Ne178    1.0000 0.07848  0.90323  0.98765  Biso   1.000  Ne
  Ne179    1.0000 0.09194  0.83775  0.10125  Biso   1.000  Ne
  He179    1.0000 0.07414  0.81236  0.10945  Biso   1.000  He
  He180    1.0000 0.08645  0.79912  0.13745  Biso   1.000  He
  Ne180    1.0000 0.06861  0.77433  0.14746  Biso   1.000  Ne
  Ne181    1.0000 0.94566  0.53166  0.42830  Biso   1.000  Ne
  He181    1.0000 0.95654  0.53642  0.45895  Biso   1.000  He
  He182    1.0000 0.93509  0.54905  0.47895  Biso   1.000  He
  Ne182    1.0000 0.93760  0.58405  0.48170  Biso   1.000  Ne
  Ne183    1.0000 0.86810  0.87095  0.25411  Biso   1.000  Ne
  He183    1.0000 0.88304  0.84698  0.23421  Biso   1.000  He
  He184    1.0000 0.87728  0.81591  0.24463  Biso   1.000  He
  Ne184    1.0000 0.88770  0.79361  0.22211  Biso   1.000  Ne
  Ne185    1.0000 0.22731  0.75215  0.93159  Biso   1.000  Ne
  He185    1.0000 0.24543  0.72563  0.93292  Biso   1.000  He
  He186    1.0000 0.23590  0.70245  0.95708  Biso   1.000  He
  Ne186    1.0000 0.24974  0.67222  0.94917  Biso   1.000  Ne
  Ne187    1.0000 0.92929  0.22729  0.87142  Biso   1.000  Ne
  He187    1.0000 0.90775  0.21145  0.85260  Biso   1.000  He
  He188    1.0000 0.91565  0.21057  0.82090  Biso   1.000  He
  Ne188    1.0000 0.89017  0.20182  0.80113  Biso   1.000  Ne
  Ne189    1.0000 0.58285  0.35785  0.11268  Biso   1.000  Ne
  He189    1.0000 0.61641  0.35596  0.10484  Biso   1.000  He
  He190    1.0000 0.62935  0.32711  0.11423  Biso   1.000  He
  Ne190    1.0000 0.66112  0.32425  0.10770  Biso   1.000  Ne
  Ne191    1.0000 0.19053  0.18030  0.93492  Biso   1.000  Ne
  He191    1.0000 0.15842  0.18925  0.94319  Biso   1.000  He
  He192    1.0000 0.13942  0.16150  0.95394  Biso   1.000  He
  Ne192    1.0000 0.10777  0.16693  0.96220  Biso   1.000  Ne
  Ne193    1.0000 0.83269  0.25170  0.37519  Biso   1.000  Ne
  He193    1.0000 0.86153  0.25873  0.38251  Biso   1.000  He
  He194    1.0000 0.86313  0.27684  0.40869  Biso   1.000  He
  Ne194    1.0000 0.89400  0.28315  0.42043  Biso   1.000  Ne
  Ne195    1.0000 0.68458  0.16777  0.44222  Biso   1.000  Ne
  He195    1.0000 0.65144  0.16780  0.43963  Biso   1.000  He
  He196    1.0000 0.63403  0.17894  0.46767  Biso   1.000  He
  Ne196    1.0000 0.60022  0.18208  0.46553  Biso   1.000  Ne
  Ne197    1.0000 0.36203  0.84043  0.61473  Biso   1.000  Ne
  He197    1.0000 0.36584  0.82723  0.64380  Biso   1.000  He
  He198    1.0000 0.39585  0.82314  0.65701  Biso   1.000  He
  Ne198    1.0000 0.39407  0.81075  0.68840  Biso   1.000  Ne
  Ne199    1.0000 0.92314  0.73672  0.64470  Biso   1.000  Ne
  He199    1.0000 0.91839  0.70272  0.64744  Biso   1.000  He
  He200    1.0000 0.93299  0.68348  0.62579  Biso   1.000  He
  Ne200    1.0000 0.93208  0.64961  0.63076  Biso   1.000  Ne
  Ne201    1.0000 0.11903  0.40880  0.31487  Biso   1.000  Ne
  He201    1.0000 0.14707  0.40865  0.33122  Biso   1.000  He
  He202    1.0000 0.17452  0.41942  0.31383  Biso   1.000  He
  Ne202    1.0000 0.19764  0.42760  0.33489  Biso   1.000  Ne
  Ne203    1.0000 0.56057  0.34412  0.39438  Biso   1.000  Ne
  He203    1.0000 0.57283  0.32592  0.37162  Biso   1.000  He
  He204    1.0000 0.55244  0.30067  0.36197  Biso   1.000  He
  Ne204    1.0000 0.56648  0.28250  0.33676  Biso   1.000  Ne
  Ne205    1.0000 0.83574  0.70931  0.62391  Biso   1.000  Ne
  He205    1.0000 0.81846  0.67959  0.62782  Biso   1.000  He
  He206    1.0000 0.80774  0.66714  0.60121  Biso   1.000  He
  Ne206    1.0000 0.78696  0.64039  0.60215  Biso   1.000  Ne
  Ne207    1.0000 0.56605  0.76749  0.43862  Biso   1.000  Ne
  He207    1.0000 0.56681  0.80297  0.43317  Biso   1.000  He
  He208    1.0000 0.59291  0.82282  0.44181  Biso   1.000  He
  Ne208    1.0000 0.58789  0.85656  0.43907  Biso   1.000  Ne
  Ne209    1.0000 0.39328  0.07413  0.64825  Biso   1.000  Ne
  He209    1.0000 0.40064  0.10135  0.62890  Biso   1.000  He
  He210    1.0000 0.42396  0.12184  0.64314  Biso   1.000  He
  Ne210    1.0000 0.42626  0.15180  0.62651  Biso   1.000  Ne
  Ne211    1.0000 0.77821  0.37514  0.06930  Biso   1.000  Ne
  He211    1.0000 0.77322  0.39852  0.09353  Biso   1.000  He
  He212    1.0000 0.78922  0.39286  0.12338  Biso   1.000  He
  Ne212    1.0000 0.78288  0.41705  0.14503  Biso   1.000  Ne
  Ne213    1.0000 0.28577  0.58117  0.90130  Biso   1.000  Ne
  He213    1.0000 0.31265  0.58037  0.92120  Biso   1.000  He
  He214    1.0000 0.33977  0.56660  0.90689  Biso   1.000  He
  Ne214    1.0000 0.36559  0.56432  0.92728  Biso   1.000  Ne
  Ne215    1.0000 0.39800  0.84710  0.44886  Biso   1.000  Ne
  He215    1.0000 0.40856  0.81653  0.43542  Biso   1.000  He
  He216    1.0000 0.38536  0.80134  0.41856  Biso   1.000  He
  Ne216    1.0000 0.39404  0.77217  0.40651  Biso   1.000  Ne
  Ne217    1.0000 0.16908  0.06166  0.20819  Biso   1.000  Ne
  He217    1.0000 0.13579  0.06466  0.21810  Biso   1.000  He
  He218    1.0000 0.12959  0.09723  0.22061  Biso   1.000  He
  Ne218    1.0000 0.09624  0.10366  0.22531  Biso   1.000  Ne
  Ne219    1.0000 0.64689  0.09583  0.35898  Biso   1.000  Ne
  He219    1.0000 0.62539  0.07310  0.34155  Biso   1.000  He
  He220    1.0000 0.62080  0.08706  0.31196  Biso   1.000  He
  Ne220    1.0000 0.59966  0.07065  0.29386  Biso   1.000  Ne
  Ne221    1.0000 0.34835  0.40165  0.96234  Biso   1.000  Ne
  He221    1.0000 0.33046  0.41368  0.93469  Biso   1.000  He
  He222    1.0000 0.29971  0.39983  0.92854  Biso   1.000  He
  Ne222    1.0000 0.28250  0.40795  0.89776  Biso   1.000  Ne
  Ne223    1.0000 0.87402  0.74867  0.40514  Biso   1.000  Ne
  He223    1.0000 0.88097  0.75487  0.37469  Biso   1.000  He
  He224    1.0000 0.89025  0.72843  0.35755  Biso   1.000  He
  Ne224    1.0000 0.89459  0.73009  0.32588  Biso   1.000  Ne
  Ne225    1.0000 0.22912  0.06547  0.93237  Biso   1.000  Ne
  He225    1.0000 0.20121  0.05926  0.91217  Biso   1.000  He
  He226    1.0000 0.17440  0.07841  0.91468  Biso   1.000  He
  Ne226    1.0000 0.15402  0.07678  0.94071  Biso   1.000  Ne
  Ne227    1.0000 0.65461  0.90790  0.44560  Biso   1.000  Ne
  He227    1.0000 0.67268  0.88916  0.42643  Biso   1.000  He
  He228    1.0000 0.68791  0.90666  0.40432  Biso   1.000  He
  Ne228    1.0000 0.70270  0.88662  0.38322  Biso   1.000  Ne
  Ne229    1.0000 0.68811  0.58496  0.25546  Biso   1.000  Ne
  He229    1.0000 0.71335  0.56315  0.26024  Biso   1.000  He
  He230    1.0000 0.74254  0.57352  0.25193  Biso   1.000  He
  Ne230    1.0000 0.76724  0.55474  0.25967  Biso   1.000  Ne
  Ne231    1.0000 0.45464  0.49195  0.09387  Biso   1.000  Ne
  He231    1.0000 0.43584  0.46903  0.10917  Biso   1.000  He
  He232    1.0000 0.41295  0.45334  0.08775  Biso   1.000  He
  Ne232    1.0000 0.42316  0.42283  0.07459  Biso   1.000  Ne
  Ne233    1.0000 0.41236  0.26815  0.91322  Biso   1.000  Ne
  He233    1.0000 0.42249  0.29880  0.91977  Biso   1.000  He
  He234    1.0000 0.40581  0.31374  0.94513  Biso   1.000  He
  Ne234    1.0000 0.41308  0.34473  0.95086  Biso   1.000  Ne
  Ne235    1.0000 0.56498  0.85426  0.35075  Biso   1.000  Ne
  He235    1.0000 0.59379  0.86524  0.33538  Biso   1.000  He
  He236    1.0000 0.60872  0.89388  0.34851  Biso   1.000  He
  Ne236    1.0000 0.63420  0.90719  0.33014  Biso   1.000  Ne
  Ne237    1.0000 0.91200  0.25968  0.99960  Biso   1.000  Ne
  He237    1.0000 0.94114  0.26396  0.98216  Biso   1.000  He
  He238    1.0000 0.94823  0.29497  0.97327  Biso   1.000  He
  Ne238    1.0000 0.97170  0.29676  0.94887  Biso   1.000  Ne
  Ne239    1.0000 0.43308  0.18184  0.45535  Biso   1.000  Ne
  He239    1.0000 0.42995  0.17366  0.42096  Biso   1.000  He
  He240    1.0000 0.43036  0.14207  0.41750  Biso   1.000  He
  Ne240    1.0000 0.41084  0.13275  0.39345  Biso   1.000  Ne
  Ne241    1.0000 0.35375  0.30768  0.49960  Biso   1.000  Ne
  He241    1.0000 0.35101  0.27706  0.48860  Biso   1.000  He
  He242    1.0000 0.34043  0.27639  0.45872  Biso   1.000  He
  Ne242    1.0000 0.33634  0.24579  0.44615  Biso   1.000  Ne
  Ne243    1.0000 0.57565  0.76082  0.58624  Biso   1.000  Ne
  He243    1.0000 0.56478  0.77354  0.61598  Biso   1.000  He
  He244    1.0000 0.57197  0.75296  0.63992  Biso   1.000  He
  Ne244    1.0000 0.56273  0.76357  0.66700  Biso   1.000  Ne
  Ne245    1.0000 0.37933  0.75812  0.58903  Biso   1.000  Ne
  He245    1.0000 0.35245  0.74395  0.60224  Biso   1.000  He
  He246    1.0000 0.32318  0.75870  0.60025  Biso   1.000  He
  Ne246    1.0000 0.29751  0.73836  0.61169  Biso   1.000  Ne
  Ne247    1.0000 0.61917  0.05273  0.72770  Biso   1.000  Ne
  He247    1.0000 0.58932  0.05613  0.73951  Biso   1.000  He
  He248    1.0000 0.58677  0.06819  0.77151  Biso   1.000  He
  Ne248    1.0000 0.55610  0.07633  0.78504  Biso   1.000  Ne
  Ne249    1.0000 0.65750  0.61260  0.13687  Biso   1.000  Ne
  He249    1.0000 0.68320  0.59117  0.13528  Biso   1.000  He
  He250    1.0000 0.68486  0.57113  0.16056  Biso   1.000  He
  Ne250    1.0000 0.70992  0.55270  0.15643  Biso   1.000  Ne
  Ne251    1.0000 0.81570  0.40700  0.69124  Biso   1.000  Ne
  He251    1.0000 0.81510  0.39955  0.65906  Biso   1.000  He
  He252    1.0000 0.78744  0.41099  0.64329  Biso   1.000  He
  Ne252    1.0000 0.78599  0.40252  0.61255  Biso   1.000  Ne
  Ne253    1.0000 0.33310  0.67757  0.93673  Biso   1.000  Ne
  He253    1.0000 0.35877  0.65498  0.93796  Biso   1.000  He
  He254    1.0000 0.38529  0.66857  0.92275  Biso   1.000  He
  Ne254    1.0000 0.41134  0.64837  0.92279  Biso   1.000  Ne
  Ne255    1.0000 0.22597  0.38292  0.61727  Biso   1.000  Ne
  He255    1.0000 0.19251  0.38784  0.61629  Biso   1.000  He
  He256    1.0000 0.18388  0.41802  0.60778  Biso   1.000  He
  Ne256    1.0000 0.15016  0.42571  0.60978  Biso   1.000  Ne
  Ne257    1.0000 0.06377  0.92240  0.07516  Biso   1.000  Ne
  He257    1.0000 0.08138  0.94385  0.09283  Biso   1.000  He
  He258    1.0000 0.08039  0.97565  0.07674  Biso   1.000  He
  Ne258    1.0000 0.05444  0.99423  0.08622  Biso   1.000  Ne
  Ne259    1.0000 0.42822  0.39963  0.25844  Biso   1.000  Ne
  He259    1.0000 0.42947  0.41666  0.23043  Biso   1.000  He
  He260    1.0000 0.43579  0.39836  0.20393  Biso   1.000  He
  Ne260    1.0000 0.43828  0.41437  0.17275  Biso   1.000  Ne
  Ne261    1.0000 0.42918  0.09181  0.79883  Biso   1.000  Ne
  He261    1.0000 0.39712  0.08288  0.80457  Biso   1.000  He
  He262    1.0000 0.39052  0.06574  0.83133  Biso   1.000  He
  Ne262    1.0000 0.35710  0.06280  0.83440  Biso   1.000  Ne
  Ne263    1.0000 0.57485  0.80687  0.22703  Biso   1.000  Ne
  He263    1.0000 0.56913  0.83886  0.22116  Biso   1.000  He
  He264    1.0000 0.56573  0.85837  0.24703  Biso   1.000  He
  Ne264    1.0000 0.56309  0.89077  0.24116  Biso   1.000  Ne
  Ne265    1.0000 0.79838  0.07619  0.15374  Biso   1.000  Ne
  He265    1.0000 0.80586  0.10515  0.13791  Biso   1.000  He
  He266    1.0000 0.81434  0.10637  0.10664  Biso   1.000  He
  Ne266    1.0000 0.82210  0.13783  0.09466  Biso   1.000  Ne
  Ne267    1.0000 0.94493  0.41845  0.46678  Biso   1.000  Ne
  He267    1.0000 0.95251  0.38729  0.47063  Biso   1.000  He
  He268    1.0000 0.93031  0.36686  0.45954  Biso   1.000  He
  Ne268    1.0000 0.94150  0.33481  0.46478  Biso   1.000  Ne
  Ne269    1.0000 0.35221  0.24136  0.98125  Biso   1.000  Ne
  He269    1.0000 0.33048  0.22191  0.96339  Biso   1.000  He
  He270    1.0000 0.33587  0.18948  0.96394  Biso   1.000  He
  Ne270    1.0000 0.31491  0.17731  0.94436  Biso   1.000  Ne
  Ne271    1.0000 0.89741  0.16598  0.16793  Biso   1.000  Ne
  He271    1.0000 0.90323  0.13232  0.17233  Biso   1.000  He
  He272    1.0000 0.92491  0.12907  0.19697  Biso   1.000  He
  Ne272    1.0000 0.93443  0.09850  0.20162  Biso   1.000  Ne
  Ne273    1.0000 0.43319  0.55584  0.16771  Biso   1.000  Ne
  He273    1.0000 0.41542  0.57419  0.18797  Biso   1.000  He
  He274    1.0000 0.42543  0.57431  0.22218  Biso   1.000  He
  Ne274    1.0000 0.41288  0.59930  0.24068  Biso   1.000  Ne
  Ne275    1.0000 0.47661  0.93873  0.44916  Biso   1.000  Ne
  He275    1.0000 0.50745  0.94076  0.45997  Biso   1.000  He
  He276    1.0000 0.51461  0.91496  0.47717  Biso   1.000  He
  Ne276    1.0000 0.54519  0.91758  0.49045  Biso   1.000  Ne
  Ne277    1.0000 0.66585  0.73125  0.59535  Biso   1.000  Ne
  He277    1.0000 0.65298  0.75228  0.61633  Biso   1.000  He
  He278    1.0000 0.67656  0.77170  0.63317  Biso   1.000  He
  Ne278    1.0000 0.66411  0.79012  0.65851  Biso   1.000  Ne
  Ne279    1.0000 0.47540  0.48373  0.00834  Biso   1.000  Ne
  He279    1.0000 0.46079  0.51000  0.99247  Biso   1.000  He
  He280    1.0000 0.42710  0.50928  0.99343  Biso   1.000  He
  Ne280    1.0000 0.41493  0.53407  0.97595  Biso   1.000  Ne
  Ne281    1.0000 0.10322  0.26688  0.45031  Biso   1.000  Ne
  He281    1.0000 0.10430  0.30121  0.44391  Biso   1.000  He
  He282    1.0000 0.09549  0.30917  0.41261  Biso   1.000  He
  Ne282    1.0000 0.10917  0.33796  0.40234  Biso   1.000  Ne
  Ne283    1.0000 0.57339  0.36884  0.93480  Biso   1.000  Ne
  He283    1.0000 0.58246  0.34236  0.95217  Biso   1.000  He
  He284    1.0000 0.59132  0.31592  0.93380  Biso   1.000  He
  Ne284    1.0000 0.60135  0.28866  0.95039  Biso   1.000  Ne
  Ne285    1.0000 0.46773  0.97190  0.58756  Biso   1.000  Ne
  He285    1.0000 0.47856  0.00318  0.58389  Biso   1.000  He
  He286    1.0000 0.45541  0.02726  0.58067  Biso   1.000  He
  Ne286    1.0000 0.46672  0.05696  0.57298  Biso   1.000  Ne
  Ne287    1.0000 0.86759  0.63966  0.44956  Biso   1.000  Ne
  He287    1.0000 0.88791  0.66526  0.44794  Biso   1.000  He
  He288    1.0000 0.87330  0.69469  0.45903  Biso   1.000  He
  Ne288    1.0000 0.89496  0.72020  0.46685  Biso   1.000  Ne
  Ne289    1.0000 0.32900  0.94339  0.79092  Biso   1.000  Ne
  He289    1.0000 0.33835  0.96519  0.81640  Biso   1.000  He
  He290    1.0000 0.35783  0.94721  0.83538  Biso   1.000  He
  Ne290    1.0000 0.37498  0.96358  0.85680  Biso   1.000  Ne
  Ne291    1.0000 0.92101  0.84286  0.93799  Biso   1.000  Ne
  He291    1.0000 0.89224  0.83679  0.92175  Biso   1.000  He
  He292    1.0000 0.86868  0.82002  0.93958  Biso   1.000  He
  Ne292    1.0000 0.84046  0.81869  0.92233  Biso   1.000  Ne
  Ne293    1.0000 0.08791  0.24098  0.36965  Biso   1.000  Ne
  He293    1.0000 0.07804  0.23451  0.33969  Biso   1.000  He
  He294    1.0000 0.10197  0.23459  0.31915  Biso   1.000  He
  Ne294    1.0000 0.09324  0.22358  0.28996  Biso   1.000  Ne
  Ne295    1.0000 0.56925  0.71500  0.11035  Biso   1.000  Ne
  He295    1.0000 0.60286  0.72064  0.10490  Biso   1.000  He
  He296    1.0000 0.62408  0.69637  0.11454  Biso   1.000  He
  Ne296    1.0000 0.65527  0.70390  0.10642  Biso   1.000  Ne
  Ne297    1.0000 0.30244  0.66316  0.83461  Biso   1.000  Ne
  He297    1.0000 0.28678  0.63398  0.83049  Biso   1.000  He
  He298    1.0000 0.26460  0.63101  0.80544  Biso   1.000  He
  Ne298    1.0000 0.24611  0.59967  0.80614  Biso   1.000  Ne
  Ne299    1.0000 0.58287  0.52146  0.99704  Biso   1.000  Ne
  He299    1.0000 0.57156  0.53043  0.96753  Biso   1.000  He
  He300    1.0000 0.53798  0.53276  0.96562  Biso   1.000  He
  Ne300    1.0000 0.52744  0.54039  0.93631  Biso   1.000  Ne
