data_image0
_cell_length_a       46.9371
_cell_length_b       46.6646
_cell_length_c       46.6336
_cell_angle_alpha    90
_cell_angle_beta     90
_cell_angle_gamma    90

_symmetry_space_group_name_H-M    "P 1"
_symmetry_int_tables_number       1

loop_
  _symmetry_equiv_pos_as_xyz
  'x, y, z'

loop_
  _atom_site_label
  _atom_site_occupancy
  _atom_site_fract_x
  _atom_site_fract_y
  _atom_site_fract_z
  _atom_site_thermal_displace_type
  _atom_site_B_iso_or_equiv
  _atom_site_type_symbol
  Ne1      1.0000 0.35639  0.92938  0.20325  Biso   1.000  Ne
  He1      1.0000 0.35532  0.93124  0.23807  Biso   1.000  He
  He2      1.0000 0.36666  0.90624  0.25390  Biso   1.000  He
  Ne2      1.0000 0.36884  0.91171  0.28788  Biso   1.000  Ne
  Ne3      1.0000 0.57377  0.59767  0.11135  Biso   1.000  Ne
  He3      1.0000 0.56613  0.56944  0.09614  Biso   1.000  He
  He4      1.0000 0.59269  0.55345  0.08334  Biso   1.000  He
  Ne4      1.0000 0.58425  0.52193  0.07705  Biso   1.000  Ne
  Ne5      1.0000 0.19714  0.58215  0.59431  Biso   1.000  Ne
  He5      1.0000 0.22276  0.56485  0.60394  Biso   1.000  He
  He6      1.0000 0.23761  0.57456  0.63073  Biso   1.000  He
  Ne6      1.0000 0.26503  0.55813  0.63594  Biso   1.000  Ne
  Ne7      1.0000 0.81276  0.62662  0.61155  Biso   1.000  Ne
  He7      1.0000 0.82392  0.65491  0.60335  Biso   1.000  He
  He8      1.0000 0.85698  0.65336  0.59966  Biso   1.000  He
  Ne8      1.0000 0.87010  0.68146  0.59119  Biso   1.000  Ne
  Ne9      1.0000 0.80494  0.97401  0.40495  Biso   1.000  Ne
  He9      1.0000 0.78030  0.96789  0.42679  Biso   1.000  He
  He10     1.0000 0.76525  0.93767  0.41850  Biso   1.000  He
  Ne10     1.0000 0.73678  0.93154  0.43260  Biso   1.000  Ne
  Ne11     1.0000 0.09832  0.90040  0.77775  Biso   1.000  Ne
  He11     1.0000 0.09205  0.91897  0.80475  Biso   1.000  He
  He12     1.0000 0.10495  0.90389  0.83148  Biso   1.000  He
  Ne12     1.0000 0.10578  0.92233  0.85871  Biso   1.000  Ne
  Ne13     1.0000 0.58506  0.29040  0.11565  Biso   1.000  Ne
  He13     1.0000 0.58280  0.32176  0.12670  Biso   1.000  He
  He14     1.0000 0.59820  0.32230  0.15449  Biso   1.000  He
  Ne14     1.0000 0.59608  0.34735  0.17534  Biso   1.000  Ne
  Ne15     1.0000 0.58007  0.90582  0.41762  Biso   1.000  Ne
  He15     1.0000 0.58873  0.90915  0.38443  Biso   1.000  He
  He16     1.0000 0.57864  0.88743  0.36532  Biso   1.000  He
  Ne16     1.0000 0.58802  0.88790  0.33453  Biso   1.000  Ne
  Ne17     1.0000 0.39408  0.95270  0.56471  Biso   1.000  Ne
  He17     1.0000 0.38423  0.92062  0.57007  Biso   1.000  He
  He18     1.0000 0.36564  0.92015  0.59621  Biso   1.000  He
  Ne18     1.0000 0.35096  0.89208  0.60296  Biso   1.000  Ne
  Ne19     1.0000 0.44339  0.37642  0.89417  Biso   1.000  Ne
  He19     1.0000 0.43291  0.38879  0.92363  Biso   1.000  He
  He20     1.0000 0.42224  0.41783  0.92280  Biso   1.000  He
  Ne20     1.0000 0.41328  0.43522  0.95166  Biso   1.000  Ne
  Ne21     1.0000 0.61244  0.39189  0.09730  Biso   1.000  Ne
  He21     1.0000 0.57972  0.40129  0.09866  Biso   1.000  He
  He22     1.0000 0.56654  0.42350  0.07798  Biso   1.000  He
  Ne22     1.0000 0.54369  0.41787  0.05242  Biso   1.000  Ne
  Ne23     1.0000 0.59527  0.34825  0.92795  Biso   1.000  Ne
  He23     1.0000 0.62527  0.35975  0.93385  Biso   1.000  He
  He24     1.0000 0.62834  0.39511  0.93704  Biso   1.000  He
  Ne24     1.0000 0.66025  0.40524  0.93339  Biso   1.000  Ne
  Ne25     1.0000 0.05949  0.42122  0.48125  Biso   1.000  Ne
  He25     1.0000 0.04335  0.44881  0.48931  Biso   1.000  He
  He26     1.0000 0.05701  0.47776  0.48459  Biso   1.000  He
  Ne26     1.0000 0.03823  0.50265  0.49500  Biso   1.000  Ne
  Ne27     1.0000 0.90345  0.68413  0.36201  Biso   1.000  Ne
  He27     1.0000 0.92330  0.67454  0.38580  Biso   1.000  He
  He28     1.0000 0.90455  0.66463  0.41190  Biso   1.000  He
  Ne28     1.0000 0.92430  0.65612  0.43571  Biso   1.000  Ne
  Ne29     1.0000 0.07265  0.95494  0.92596  Biso   1.000  Ne
  He29     1.0000 0.06484  0.92194  0.92858  Biso   1.000  He
  He30     1.0000 0.08924  0.90402  0.93566  Biso   1.000  He
  Ne30     1.0000 0.08537  0.86985  0.93569  Biso   1.000  Ne
  Ne31     1.0000 0.38780  0.63506  0.08777  Biso   1.000  Ne
  He31     1.0000 0.38908  0.60118  0.08774  Biso   1.000  He
  He32     1.0000 0.42134  0.59377  0.09234  Biso   1.000  He
  Ne32     1.0000 0.42961  0.55963  0.09709  Biso   1.000  Ne
  Ne33     1.0000 0.56653  0.78629  0.77392  Biso   1.000  Ne
  He33     1.0000 0.55941  0.77630  0.80462  Biso   1.000  He
  He34     1.0000 0.55214  0.80086  0.82637  Biso   1.000  He
  Ne34     1.0000 0.54171  0.78671  0.85314  Biso   1.000  Ne
  Ne35     1.0000 0.48441  0.99202  0.57146  Biso   1.000  Ne
  He35     1.0000 0.51214  0.97200  0.57242  Biso   1.000  He
  He36     1.0000 0.53881  0.99065  0.57462  Biso   1.000  He
  Ne36     1.0000 0.56628  0.97357  0.57536  Biso   1.000  Ne
  Ne37     1.0000 0.06683  0.10599  0.13741  Biso   1.000  Ne
  He37     1.0000 0.07819  0.08695  0.16160  Biso   1.000  He
  He38     1.0000 0.11116  0.08776  0.16243  Biso   1.000  He
  Ne38     1.0000 0.12680  0.07400  0.19028  Biso   1.000  Ne
  Ne39     1.0000 0.08076  0.76728  0.16762  Biso   1.000  Ne
  He39     1.0000 0.07800  0.76700  0.13183  Biso   1.000  He
  He40     1.0000 0.09007  0.79756  0.12023  Biso   1.000  He
  Ne40     1.0000 0.08053  0.80295  0.08935  Biso   1.000  Ne
  Ne41     1.0000 0.90499  0.14146  0.07518  Biso   1.000  Ne
  He41     1.0000 0.87878  0.14153  0.09191  Biso   1.000  He
  He42     1.0000 0.86003  0.11666  0.08332  Biso   1.000  He
  Ne42     1.0000 0.83363  0.11436  0.10077  Biso   1.000  Ne
  Ne43     1.0000 0.94355  0.59047  0.66255  Biso   1.000  Ne
  He43     1.0000 0.91839  0.59128  0.68128  Biso   1.000  He
  He44     1.0000 0.89251  0.59798  0.66439  Biso   1.000  He
  Ne44     1.0000 0.86287  0.59655  0.68046  Biso   1.000  Ne
  Ne45     1.0000 0.82109  0.41342  0.40115  Biso   1.000  Ne
  He45     1.0000 0.84895  0.40585  0.39097  Biso   1.000  He
  He46     1.0000 0.87360  0.41495  0.40827  Biso   1.000  He
  Ne46     1.0000 0.89925  0.41638  0.39201  Biso   1.000  Ne
  Ne47     1.0000 0.90496  0.56504  0.42824  Biso   1.000  Ne
  He47     1.0000 0.88366  0.56776  0.40155  Biso   1.000  He
  He48     1.0000 0.89763  0.58219  0.37366  Biso   1.000  He
  Ne48     1.0000 0.87412  0.59324  0.35052  Biso   1.000  Ne
  Ne49     1.0000 0.41666  0.66755  0.89087  Biso   1.000  Ne
  He49     1.0000 0.42084  0.63696  0.89702  Biso   1.000  He
  He50     1.0000 0.41981  0.62996  0.92901  Biso   1.000  He
  Ne50     1.0000 0.42187  0.59807  0.93522  Biso   1.000  Ne
  Ne51     1.0000 0.08979  0.61181  0.62529  Biso   1.000  Ne
  He51     1.0000 0.11364  0.60974  0.64870  Biso   1.000  He
  He52     1.0000 0.10227  0.61793  0.67899  Biso   1.000  He
  Ne52     1.0000 0.12472  0.61767  0.70401  Biso   1.000  Ne
  Ne53     1.0000 0.28274  0.58879  0.89807  Biso   1.000  Ne
  He53     1.0000 0.31376  0.59948  0.88775  Biso   1.000  He
  He54     1.0000 0.32636  0.58285  0.86249  Biso   1.000  He
  Ne54     1.0000 0.35789  0.59264  0.85371  Biso   1.000  Ne
  Ne55     1.0000 0.09960  0.35905  0.60637  Biso   1.000  Ne
  He55     1.0000 0.11686  0.33451  0.59371  Biso   1.000  He
  He56     1.0000 0.10543  0.30567  0.60165  Biso   1.000  He
  Ne56     1.0000 0.12413  0.28225  0.59109  Biso   1.000  Ne
  Ne57     1.0000 0.42408  0.11338  0.33312  Biso   1.000  Ne
  He57     1.0000 0.41685  0.10860  0.36516  Biso   1.000  He
  He58     1.0000 0.40723  0.07758  0.37172  Biso   1.000  He
  Ne58     1.0000 0.39772  0.06942  0.40127  Biso   1.000  Ne
  Ne59     1.0000 0.32208  0.41796  0.91446  Biso   1.000  Ne
  He59     1.0000 0.34740  0.42223  0.89331  Biso   1.000  He
  He60     1.0000 0.35446  0.39745  0.87585  Biso   1.000  He
  Ne60     1.0000 0.37767  0.39953  0.85104  Biso   1.000  Ne
