data_image0
_cell_length_a       46.6574
_cell_length_b       46.6031
_cell_length_c       46.6316
_cell_angle_alpha    90
_cell_angle_beta     90
_cell_angle_gamma    90

_symmetry_space_group_name_H-M    "P 1"
_symmetry_int_tables_number       1

loop_
  _symmetry_equiv_pos_as_xyz
  'x, y, z'

loop_
  _atom_site_label
  _atom_site_occupancy
  _atom_site_fract_x
  _atom_site_fract_y
  _atom_site_fract_z
  _atom_site_thermal_displace_type
  _atom_site_B_iso_or_equiv
  _atom_site_type_symbol
  Ne1      1.0000 0.08900  0.88448  0.95046  Biso   1.000  Ne
  He1      1.0000 0.07415  0.91172  0.94269  Biso   1.000  He
  He2      1.0000 0.04320  0.90666  0.93746  Biso   1.000  He
  Ne2      1.0000 0.02823  0.93475  0.93119  Biso   1.000  Ne
  Ne3      1.0000 0.23903  0.57165  0.83193  Biso   1.000  Ne
  He3      1.0000 0.20872  0.56482  0.84142  Biso   1.000  He
  He4      1.0000 0.20635  0.53354  0.85578  Biso   1.000  He
  Ne4      1.0000 0.17681  0.52839  0.87037  Biso   1.000  Ne
  Ne5      1.0000 0.94295  0.68492  0.62324  Biso   1.000  Ne
  He5      1.0000 0.93907  0.70894  0.59958  Biso   1.000  He
  He6      1.0000 0.90770  0.72081  0.60280  Biso   1.000  He
  Ne6      1.0000 0.89805  0.74065  0.57877  Biso   1.000  Ne
  Ne7      1.0000 0.66937  0.59213  0.20941  Biso   1.000  Ne
  He7      1.0000 0.64521  0.57754  0.19066  Biso   1.000  He
  He8      1.0000 0.61589  0.59492  0.18655  Biso   1.000  He
  Ne8      1.0000 0.59123  0.58220  0.16221  Biso   1.000  Ne
  Ne9      1.0000 0.06311  0.37728  0.28264  Biso   1.000  Ne
  He9      1.0000 0.07710  0.39696  0.30660  Biso   1.000  He
  He10     1.0000 0.09478  0.37926  0.32689  Biso   1.000  He
  Ne10     1.0000 0.10888  0.39766  0.34789  Biso   1.000  Ne
  Ne11     1.0000 0.85878  0.85959  0.11180  Biso   1.000  Ne
  He11     1.0000 0.82906  0.84319  0.11358  Biso   1.000  He
  He12     1.0000 0.80655  0.86287  0.10664  Biso   1.000  He
  Ne12     1.0000 0.77596  0.85149  0.11058  Biso   1.000  Ne
  Ne13     1.0000 0.89379  0.57058  0.45362  Biso   1.000  Ne
  He13     1.0000 0.87651  0.59475  0.43506  Biso   1.000  He
  He14     1.0000 0.84290  0.58818  0.43228  Biso   1.000  He
  Ne14     1.0000 0.82593  0.61437  0.41987  Biso   1.000  Ne
  Ne15     1.0000 0.29976  0.38355  0.25274  Biso   1.000  Ne
  He15     1.0000 0.27842  0.36950  0.23135  Biso   1.000  He
  He16     1.0000 0.28891  0.33804  0.22148  Biso   1.000  He
  Ne16     1.0000 0.27191  0.32126  0.19620  Biso   1.000  Ne
  Ne17     1.0000 0.60902  0.38073  0.90129  Biso   1.000  Ne
  He17     1.0000 0.62833  0.39665  0.87822  Biso   1.000  He
  He18     1.0000 0.61352  0.39950  0.84823  Biso   1.000  He
  Ne18     1.0000 0.62956  0.41591  0.82368  Biso   1.000  Ne
  Ne19     1.0000 0.25274  0.03474  0.30943  Biso   1.000  Ne
  He19     1.0000 0.22689  0.05014  0.29591  Biso   1.000  He
  He20     1.0000 0.20324  0.02752  0.29159  Biso   1.000  He
  Ne20     1.0000 0.17244  0.04269  0.27916  Biso   1.000  Ne
  Ne21     1.0000 0.86393  0.70213  0.06347  Biso   1.000  Ne
  He21     1.0000 0.87839  0.67671  0.04631  Biso   1.000  He
  He22     1.0000 0.90351  0.68542  0.02338  Biso   1.000  He
  Ne22     1.0000 0.91687  0.65752  0.00729  Biso   1.000  Ne
  Ne23     1.0000 0.11096  0.26543  0.27164  Biso   1.000  Ne
  He23     1.0000 0.09506  0.26807  0.29923  Biso   1.000  He
  He24     1.0000 0.08980  0.23788  0.31330  Biso   1.000  He
  Ne24     1.0000 0.07788  0.23963  0.34366  Biso   1.000  Ne
  Ne25     1.0000 0.44607  0.46156  0.95846  Biso   1.000  Ne
  He25     1.0000 0.44739  0.47524  0.98830  Biso   1.000  He
  He26     1.0000 0.43203  0.45572  0.01211  Biso   1.000  He
  Ne26     1.0000 0.43487  0.46569  0.04320  Biso   1.000  Ne
  Ne27     1.0000 0.11619  0.78406  0.11070  Biso   1.000  Ne
  He27     1.0000 0.14713  0.77289  0.10651  Biso   1.000  He
  He28     1.0000 0.16856  0.77858  0.13054  Biso   1.000  He
  Ne28     1.0000 0.19970  0.76665  0.12104  Biso   1.000  Ne
  Ne29     1.0000 0.63353  0.17400  0.60853  Biso   1.000  Ne
  He29     1.0000 0.60952  0.19372  0.60856  Biso   1.000  He
  He30     1.0000 0.61181  0.21599  0.63269  Biso   1.000  He
  Ne30     1.0000 0.58474  0.23407  0.64122  Biso   1.000  Ne
  Ne31     1.0000 0.69228  0.09069  0.34299  Biso   1.000  Ne
  He31     1.0000 0.66151  0.08311  0.35205  Biso   1.000  He
  He32     1.0000 0.63863  0.07953  0.32756  Biso   1.000  He
  Ne32     1.0000 0.61055  0.06212  0.33757  Biso   1.000  Ne
  Ne33     1.0000 0.08531  0.54670  0.60073  Biso   1.000  Ne
  He33     1.0000 0.09623  0.54881  0.56900  Biso   1.000  He
  He34     1.0000 0.08472  0.52431  0.54714  Biso   1.000  He
  Ne34     1.0000 0.09833  0.52482  0.51607  Biso   1.000  Ne
  Ne35     1.0000 0.31034  0.68626  0.17865  Biso   1.000  Ne
  He35     1.0000 0.29698  0.68452  0.14868  Biso   1.000  He
  He36     1.0000 0.31386  0.70337  0.12594  Biso   1.000  He
  Ne36     1.0000 0.30222  0.69737  0.09452  Biso   1.000  Ne
  Ne37     1.0000 0.07513  0.08027  0.79254  Biso   1.000  Ne
  He37     1.0000 0.07818  0.09010  0.75941  Biso   1.000  He
  He38     1.0000 0.06183  0.07535  0.73562  Biso   1.000  He
  Ne38     1.0000 0.06988  0.08862  0.70435  Biso   1.000  Ne
  Ne39     1.0000 0.41905  0.06850  0.69054  Biso   1.000  Ne
  He39     1.0000 0.39853  0.06690  0.66333  Biso   1.000  He
  He40     1.0000 0.36781  0.07587  0.67323  Biso   1.000  He
  Ne40     1.0000 0.34382  0.07552  0.64943  Biso   1.000  Ne
  Ne41     1.0000 0.86931  0.42582  0.60501  Biso   1.000  Ne
  He41     1.0000 0.84623  0.42255  0.62896  Biso   1.000  He
  He42     1.0000 0.81544  0.42122  0.61470  Biso   1.000  He
  Ne42     1.0000 0.79412  0.41786  0.63638  Biso   1.000  Ne
  Ne43     1.0000 0.65738  0.77623  0.99298  Biso   1.000  Ne
  He43     1.0000 0.66744  0.78672  0.02202  Biso   1.000  He
  He44     1.0000 0.64651  0.77979  0.04816  Biso   1.000  He
  Ne44     1.0000 0.62459  0.80295  0.05751  Biso   1.000  Ne
  Ne45     1.0000 0.40520  0.69581  0.93106  Biso   1.000  Ne
  He45     1.0000 0.38186  0.67532  0.92060  Biso   1.000  He
  He46     1.0000 0.35326  0.68877  0.90961  Biso   1.000  He
  Ne46     1.0000 0.34126  0.66943  0.88724  Biso   1.000  Ne
  Ne47     1.0000 0.40592  0.78119  0.66762  Biso   1.000  Ne
  He47     1.0000 0.40530  0.80736  0.64709  Biso   1.000  He
  He48     1.0000 0.43346  0.81109  0.63183  Biso   1.000  He
  Ne48     1.0000 0.43477  0.83303  0.60429  Biso   1.000  Ne
  Ne49     1.0000 0.70417  0.40185  0.84964  Biso   1.000  Ne
  He49     1.0000 0.72740  0.42402  0.84176  Biso   1.000  He
  He50     1.0000 0.75546  0.41433  0.85432  Biso   1.000  He
  Ne50     1.0000 0.78084  0.43504  0.85284  Biso   1.000  Ne
  Ne51     1.0000 0.08326  0.09456  0.86343  Biso   1.000  Ne
  He51     1.0000 0.08062  0.08412  0.89443  Biso   1.000  He
  He52     1.0000 0.10158  0.10060  0.91519  Biso   1.000  He
  Ne52     1.0000 0.10124  0.09106  0.94726  Biso   1.000  Ne
  Ne53     1.0000 0.76108  0.40808  0.93158  Biso   1.000  Ne
  He53     1.0000 0.77932  0.39652  0.95724  Biso   1.000  He
  He54     1.0000 0.77464  0.36314  0.96643  Biso   1.000  He
  Ne54     1.0000 0.80190  0.35241  0.98528  Biso   1.000  Ne
  Ne55     1.0000 0.55880  0.75716  0.83312  Biso   1.000  Ne
  He55     1.0000 0.54940  0.77144  0.86302  Biso   1.000  He
  He56     1.0000 0.54443  0.75063  0.88741  Biso   1.000  He
  Ne56     1.0000 0.53502  0.76606  0.91499  Biso   1.000  Ne
  Ne57     1.0000 0.19719  0.12486  0.92968  Biso   1.000  Ne
  He57     1.0000 0.22088  0.10143  0.93555  Biso   1.000  He
  He58     1.0000 0.23052  0.08470  0.91079  Biso   1.000  He
  Ne58     1.0000 0.24952  0.06089  0.92045  Biso   1.000  Ne
  Ne59     1.0000 0.20820  0.68087  0.16650  Biso   1.000  Ne
  He59     1.0000 0.18284  0.69591  0.14908  Biso   1.000  He
  He60     1.0000 0.15630  0.67294  0.13969  Biso   1.000  He
  Ne60     1.0000 0.13089  0.68688  0.12350  Biso   1.000  Ne
  Ne61     1.0000 0.77734  0.09260  0.12601  Biso   1.000  Ne
  He61     1.0000 0.76914  0.07940  0.15608  Biso   1.000  He
  He62     1.0000 0.78803  0.08838  0.17988  Biso   1.000  He
  Ne62     1.0000 0.78515  0.07154  0.20613  Biso   1.000  Ne
  Ne63     1.0000 0.91769  0.39840  0.29632  Biso   1.000  Ne
  He63     1.0000 0.92227  0.38889  0.32518  Biso   1.000  He
  He64     1.0000 0.91819  0.41412  0.34873  Biso   1.000  He
  Ne64     1.0000 0.92421  0.40802  0.38117  Biso   1.000  Ne
  Ne65     1.0000 0.92339  0.90586  0.86738  Biso   1.000  Ne
  He65     1.0000 0.90384  0.90808  0.84175  Biso   1.000  He
  He66     1.0000 0.87526  0.88912  0.84780  Biso   1.000  He
  Ne66     1.0000 0.85510  0.89340  0.82425  Biso   1.000  Ne
  Ne67     1.0000 0.12676  0.11133  0.20055  Biso   1.000  Ne
  He67     1.0000 0.10385  0.13617  0.20080  Biso   1.000  He
  He68     1.0000 0.10454  0.15610  0.22662  Biso   1.000  He
  Ne68     1.0000 0.08208  0.17977  0.22877  Biso   1.000  Ne
  Ne69     1.0000 0.71378  0.15604  0.43228  Biso   1.000  Ne
  He69     1.0000 0.69378  0.13112  0.43076  Biso   1.000  He
  He70     1.0000 0.70688  0.10043  0.43617  Biso   1.000  He
  Ne70     1.0000 0.68791  0.07550  0.43926  Biso   1.000  Ne
  Ne71     1.0000 0.74905  0.70304  0.14408  Biso   1.000  Ne
  He71     1.0000 0.74889  0.69239  0.17516  Biso   1.000  He
  He72     1.0000 0.74316  0.66047  0.17936  Biso   1.000  He
  Ne72     1.0000 0.74207  0.65239  0.21126  Biso   1.000  Ne
  Ne73     1.0000 0.21830  0.69314  0.77886  Biso   1.000  Ne
  He73     1.0000 0.20934  0.71520  0.80246  Biso   1.000  He
  He74     1.0000 0.19041  0.70146  0.82304  Biso   1.000  He
  Ne74     1.0000 0.15765  0.70509  0.81493  Biso   1.000  Ne
  Ne75     1.0000 0.31104  0.11002  0.43370  Biso   1.000  Ne
  He75     1.0000 0.29946  0.08075  0.42087  Biso   1.000  He
  He76     1.0000 0.27006  0.08503  0.40769  Biso   1.000  He
  Ne76     1.0000 0.25799  0.05949  0.38899  Biso   1.000  Ne
  Ne77     1.0000 0.75094  0.27394  0.92817  Biso   1.000  Ne
  He77     1.0000 0.73936  0.25023  0.94529  Biso   1.000  He
  He78     1.0000 0.70617  0.25179  0.94952  Biso   1.000  He
  Ne78     1.0000 0.69235  0.23140  0.96997  Biso   1.000  Ne
  Ne79     1.0000 0.87573  0.42518  0.45022  Biso   1.000  Ne
  He79     1.0000 0.84158  0.41734  0.44633  Biso   1.000  He
  He80     1.0000 0.83832  0.38818  0.43570  Biso   1.000  He
  Ne80     1.0000 0.80729  0.37844  0.42865  Biso   1.000  Ne
  Ne81     1.0000 0.58934  0.40915  0.97844  Biso   1.000  Ne
  He81     1.0000 0.57134  0.43811  0.97619  Biso   1.000  He
  He82     1.0000 0.58069  0.45346  0.94835  Biso   1.000  He
  Ne82     1.0000 0.56277  0.48268  0.94308  Biso   1.000  Ne
  Ne83     1.0000 0.33436  0.64659  0.57910  Biso   1.000  Ne
  He83     1.0000 0.34156  0.67691  0.56573  Biso   1.000  He
  He84     1.0000 0.34426  0.70085  0.58871  Biso   1.000  He
  Ne84     1.0000 0.35140  0.73141  0.57758  Biso   1.000  Ne
  Ne85     1.0000 0.21642  0.73755  0.29767  Biso   1.000  Ne
  He85     1.0000 0.22154  0.76061  0.27419  Biso   1.000  He
  He86     1.0000 0.19955  0.75760  0.24836  Biso   1.000  He
  Ne86     1.0000 0.20187  0.77880  0.22316  Biso   1.000  Ne
  Ne87     1.0000 0.92098  0.95854  0.98123  Biso   1.000  Ne
  He87     1.0000 0.92664  0.93531  0.95818  Biso   1.000  He
  He88     1.0000 0.94829  0.91174  0.96904  Biso   1.000  He
  Ne88     1.0000 0.95542  0.88564  0.94955  Biso   1.000  Ne
  Ne89     1.0000 0.46443  0.18741  0.24395  Biso   1.000  Ne
  He89     1.0000 0.44359  0.16494  0.25939  Biso   1.000  He
  He90     1.0000 0.45752  0.14012  0.27535  Biso   1.000  He
  Ne90     1.0000 0.43837  0.11878  0.28693  Biso   1.000  Ne
  Ne91     1.0000 0.91583  0.08361  0.18807  Biso   1.000  Ne
  He91     1.0000 0.90965  0.09089  0.15440  Biso   1.000  He
  He92     1.0000 0.88228  0.07953  0.14180  Biso   1.000  He
  Ne92     1.0000 0.87567  0.08484  0.10958  Biso   1.000  Ne
  Ne93     1.0000 0.62919  0.06604  0.62843  Biso   1.000  Ne
  He93     1.0000 0.60177  0.06159  0.60979  Biso   1.000  He
  He94     1.0000 0.57637  0.04874  0.62311  Biso   1.000  He
  Ne94     1.0000 0.54568  0.04678  0.60539  Biso   1.000  Ne
  Ne95     1.0000 0.91333  0.18119  0.13352  Biso   1.000  Ne
  He95     1.0000 0.91083  0.21345  0.12339  Biso   1.000  He
  He96     1.0000 0.93918  0.23013  0.12627  Biso   1.000  He
  Ne96     1.0000 0.93545  0.26088  0.11501  Biso   1.000  Ne
  Ne97     1.0000 0.90591  0.76487  0.94014  Biso   1.000  Ne
  He97     1.0000 0.92312  0.78343  0.91966  Biso   1.000  He
  He98     1.0000 0.90835  0.80785  0.90785  Biso   1.000  He
  Ne98     1.0000 0.92729  0.82942  0.89004  Biso   1.000  Ne
  Ne99     1.0000 0.58570  0.90274  0.43958  Biso   1.000  Ne
  He99     1.0000 0.60333  0.88392  0.42069  Biso   1.000  He
  He100    1.0000 0.62510  0.86843  0.44168  Biso   1.000  He
  Ne100    1.0000 0.64860  0.84841  0.42769  Biso   1.000  Ne
  Ne101    1.0000 0.22650  0.61873  0.04402  Biso   1.000  Ne
  He101    1.0000 0.23283  0.58742  0.04105  Biso   1.000  He
  He102    1.0000 0.23165  0.56934  0.06910  Biso   1.000  He
  Ne102    1.0000 0.23219  0.53749  0.06373  Biso   1.000  Ne
  Ne103    1.0000 0.67750  0.89410  0.58873  Biso   1.000  Ne
  He103    1.0000 0.68746  0.89350  0.62215  Biso   1.000  He
  He104    1.0000 0.66095  0.89743  0.64347  Biso   1.000  He
  Ne104    1.0000 0.67312  0.90665  0.67302  Biso   1.000  Ne
  Ne105    1.0000 0.91478  0.32663  0.60916  Biso   1.000  Ne
  He105    1.0000 0.92655  0.33711  0.63729  Biso   1.000  He
  He106    1.0000 0.90722  0.36304  0.64735  Biso   1.000  He
  Ne106    1.0000 0.91542  0.37596  0.67464  Biso   1.000  Ne
  Ne107    1.0000 0.25166  0.86851  0.61965  Biso   1.000  Ne
  He107    1.0000 0.26795  0.84281  0.62729  Biso   1.000  He
  He108    1.0000 0.30148  0.84750  0.62548  Biso   1.000  He
  Ne108    1.0000 0.32036  0.82289  0.63148  Biso   1.000  Ne
  Ne109    1.0000 0.26675  0.88605  0.21321  Biso   1.000  Ne
  He109    1.0000 0.24143  0.87690  0.19501  Biso   1.000  He
  He110    1.0000 0.21336  0.89787  0.19297  Biso   1.000  He
  Ne110    1.0000 0.19239  0.89133  0.16784  Biso   1.000  Ne
  Ne111    1.0000 0.96074  0.02959  0.11004  Biso   1.000  Ne
  He111    1.0000 0.98224  0.04295  0.09467  Biso   1.000  He
  He112    1.0000 0.98167  0.03640  0.06014  Biso   1.000  He
  Ne112    1.0000 0.00068  0.05797  0.04380  Biso   1.000  Ne
  Ne113    1.0000 0.83792  0.82042  0.93713  Biso   1.000  Ne
  He113    1.0000 0.84219  0.84936  0.92494  Biso   1.000  He
  He114    1.0000 0.85266  0.87231  0.94666  Biso   1.000  He
  Ne114    1.0000 0.86376  0.89936  0.93277  Biso   1.000  Ne
  Ne115    1.0000 0.66346  0.41891  0.10344  Biso   1.000  Ne
  He115    1.0000 0.69553  0.42164  0.10670  Biso   1.000  He
  He116    1.0000 0.70212  0.41935  0.13772  Biso   1.000  He
  Ne116    1.0000 0.73289  0.42466  0.14541  Biso   1.000  Ne
  Ne117    1.0000 0.93154  0.80425  0.09416  Biso   1.000  Ne
  He117    1.0000 0.92490  0.77489  0.10306  Biso   1.000  He
  He118    1.0000 0.90192  0.77609  0.12588  Biso   1.000  He
  Ne118    1.0000 0.89304  0.74695  0.13706  Biso   1.000  Ne
  Ne119    1.0000 0.57068  0.96452  0.59005  Biso   1.000  Ne
  He119    1.0000 0.59160  0.94040  0.59323  Biso   1.000  He
  He120    1.0000 0.58724  0.91568  0.57033  Biso   1.000  He
  Ne120    1.0000 0.60480  0.88692  0.57295  Biso   1.000  Ne
  Ne121    1.0000 0.30155  0.06017  0.98794  Biso   1.000  Ne
  He121    1.0000 0.32593  0.05303  0.96593  Biso   1.000  He
  He122    1.0000 0.33498  0.08051  0.94970  Biso   1.000  He
  Ne122    1.0000 0.35998  0.07651  0.92635  Biso   1.000  Ne
  Ne123    1.0000 0.43523  0.11748  0.59244  Biso   1.000  Ne
  He123    1.0000 0.41164  0.13750  0.58914  Biso   1.000  He
  He124    1.0000 0.41576  0.17008  0.59527  Biso   1.000  He
  Ne124    1.0000 0.38963  0.18576  0.58268  Biso   1.000  Ne
  Ne125    1.0000 0.60219  0.25625  0.91708  Biso   1.000  Ne
  He125    1.0000 0.60852  0.28304  0.89515  Biso   1.000  He
  He126    1.0000 0.61125  0.27225  0.86211  Biso   1.000  He
  Ne126    1.0000 0.62866  0.29209  0.84085  Biso   1.000  Ne
  Ne127    1.0000 0.32450  0.54504  0.15152  Biso   1.000  Ne
  He127    1.0000 0.32489  0.55079  0.11723  Biso   1.000  He
  He128    1.0000 0.32595  0.58320  0.11126  Biso   1.000  He
  Ne128    1.0000 0.33030  0.59011  0.08089  Biso   1.000  Ne
  Ne129    1.0000 0.44607  0.91892  0.60704  Biso   1.000  Ne
  He129    1.0000 0.41218  0.92132  0.61553  Biso   1.000  He
  He130    1.0000 0.39057  0.92426  0.59122  Biso   1.000  He
  Ne130    1.0000 0.37497  0.89562  0.58578  Biso   1.000  Ne
  Ne131    1.0000 0.95699  0.40898  0.47382  Biso   1.000  Ne
  He131    1.0000 0.97033  0.42297  0.44849  Biso   1.000  He
  He132    1.0000 0.96690  0.45620  0.44863  Biso   1.000  He
  Ne132    1.0000 0.98501  0.47208  0.42759  Biso   1.000  Ne
  Ne133    1.0000 0.93942  0.73175  0.78451  Biso   1.000  Ne
  He133    1.0000 0.94193  0.71807  0.81483  Biso   1.000  He
  He134    1.0000 0.96072  0.73556  0.83592  Biso   1.000  He
  Ne134    1.0000 0.96223  0.72332  0.86372  Biso   1.000  Ne
  Ne135    1.0000 0.61390  0.36633  0.20877  Biso   1.000  Ne
  He135    1.0000 0.63587  0.39139  0.20268  Biso   1.000  He
  He136    1.0000 0.62216  0.42024  0.19530  Biso   1.000  He
  Ne136    1.0000 0.61338  0.42576  0.16381  Biso   1.000  Ne
  Ne137    1.0000 0.50045  0.16733  0.93136  Biso   1.000  Ne
  He137    1.0000 0.53124  0.17774  0.93871  Biso   1.000  He
  He138    1.0000 0.53360  0.20362  0.95812  Biso   1.000  He
  Ne138    1.0000 0.56190  0.21234  0.97166  Biso   1.000  Ne
  Ne139    1.0000 0.57068  0.52879  0.10130  Biso   1.000  Ne
  He139    1.0000 0.59035  0.54882  0.08091  Biso   1.000  He
  He140    1.0000 0.58759  0.57940  0.08627  Biso   1.000  He
  Ne140    1.0000 0.60383  0.59704  0.06605  Biso   1.000  Ne
  Ne141    1.0000 0.08242  0.97056  0.03580  Biso   1.000  Ne
  He141    1.0000 0.08614  0.00199  0.04320  Biso   1.000  He
  He142    1.0000 0.07858  0.01028  0.07314  Biso   1.000  He
  Ne142    1.0000 0.08343  0.04236  0.07890  Biso   1.000  Ne
  Ne143    1.0000 0.05864  0.24047  0.96244  Biso   1.000  Ne
  He143    1.0000 0.06607  0.23016  0.93010  Biso   1.000  He
  He144    1.0000 0.06868  0.19561  0.92962  Biso   1.000  He
  Ne144    1.0000 0.07824  0.18721  0.89974  Biso   1.000  Ne
  Ne145    1.0000 0.37156  0.76415  0.29562  Biso   1.000  Ne
  He145    1.0000 0.39693  0.74396  0.30309  Biso   1.000  He
  He146    1.0000 0.41114  0.75415  0.33076  Biso   1.000  He
  Ne146    1.0000 0.44257  0.74501  0.33802  Biso   1.000  Ne
  Ne147    1.0000 0.43795  0.84855  0.36707  Biso   1.000  Ne
  He147    1.0000 0.42236  0.84358  0.39618  Biso   1.000  He
  He148    1.0000 0.42244  0.81180  0.40422  Biso   1.000  He
  Ne148    1.0000 0.41594  0.80432  0.43625  Biso   1.000  Ne
  Ne149    1.0000 0.52296  0.95762  0.43029  Biso   1.000  Ne
  He149    1.0000 0.50187  0.98214  0.42958  Biso   1.000  He
  He150    1.0000 0.46937  0.97548  0.43459  Biso   1.000  He
  Ne150    1.0000 0.45238  0.00167  0.43617  Biso   1.000  Ne
  Ne151    1.0000 0.39892  0.07067  0.39048  Biso   1.000  Ne
  He151    1.0000 0.37424  0.07611  0.36993  Biso   1.000  He
  He152    1.0000 0.37718  0.06576  0.33800  Biso   1.000  He
  Ne152    1.0000 0.35036  0.07248  0.32112  Biso   1.000  Ne
  Ne153    1.0000 0.76427  0.59961  0.34921  Biso   1.000  Ne
  He153    1.0000 0.75920  0.60491  0.31865  Biso   1.000  He
  He154    1.0000 0.72977  0.61759  0.31396  Biso   1.000  He
  Ne154    1.0000 0.72110  0.62461  0.28174  Biso   1.000  Ne
  Ne155    1.0000 0.18357  0.37376  0.20075  Biso   1.000  Ne
  He155    1.0000 0.18201  0.39024  0.22909  Biso   1.000  He
  He156    1.0000 0.18916  0.37151  0.25517  Biso   1.000  He
  Ne156    1.0000 0.18656  0.38697  0.28377  Biso   1.000  Ne
  Ne157    1.0000 0.09626  0.79626  0.78255  Biso   1.000  Ne
  He157    1.0000 0.12071  0.77638  0.77482  Biso   1.000  He
  He158    1.0000 0.13805  0.78562  0.74887  Biso   1.000  He
  Ne158    1.0000 0.16001  0.76229  0.73981  Biso   1.000  Ne
  Ne159    1.0000 0.15769  0.19327  0.12016  Biso   1.000  Ne
  He159    1.0000 0.14118  0.21040  0.09619  Biso   1.000  He
  He160    1.0000 0.10765  0.20402  0.09348  Biso   1.000  He
  Ne160    1.0000 0.09009  0.22720  0.10944  Biso   1.000  Ne
  Ne161    1.0000 0.70717  0.60164  0.86650  Biso   1.000  Ne
  He161    1.0000 0.72283  0.58459  0.88736  Biso   1.000  He
  He162    1.0000 0.70987  0.58337  0.91564  Biso   1.000  He
  Ne162    1.0000 0.73022  0.57000  0.93828  Biso   1.000  Ne
  Ne163    1.0000 0.92723  0.90361  0.18436  Biso   1.000  Ne
  He163    1.0000 0.93949  0.87409  0.19389  Biso   1.000  He
  He164    1.0000 0.91827  0.85152  0.18837  Biso   1.000  He
  Ne164    1.0000 0.92801  0.82082  0.19674  Biso   1.000  Ne
  Ne165    1.0000 0.10222  0.75537  0.93472  Biso   1.000  Ne
  He165    1.0000 0.09659  0.77672  0.91224  Biso   1.000  He
  He166    1.0000 0.10114  0.80420  0.92332  Biso   1.000  He
  Ne166    1.0000 0.10041  0.82664  0.90050  Biso   1.000  Ne
  Ne167    1.0000 0.59346  0.02295  0.47197  Biso   1.000  Ne
  He167    1.0000 0.60154  0.04855  0.45451  Biso   1.000  He
  He168    1.0000 0.58061  0.05339  0.43067  Biso   1.000  He
  Ne168    1.0000 0.58668  0.07841  0.40945  Biso   1.000  Ne
  Ne169    1.0000 0.33316  0.40875  0.87605  Biso   1.000  Ne
  He169    1.0000 0.36685  0.40352  0.88187  Biso   1.000  He
  He170    1.0000 0.37444  0.40360  0.91366  Biso   1.000  He
  Ne170    1.0000 0.40702  0.40886  0.91985  Biso   1.000  Ne
  Ne171    1.0000 0.01045  0.48347  0.55045  Biso   1.000  Ne
  He171    1.0000 0.97884  0.48085  0.56125  Biso   1.000  He
  He172    1.0000 0.95672  0.48175  0.53797  Biso   1.000  He
  Ne172    1.0000 0.92320  0.47940  0.54610  Biso   1.000  Ne
  Ne173    1.0000 0.27568  0.14887  0.58269  Biso   1.000  Ne
  He173    1.0000 0.30596  0.16160  0.59346  Biso   1.000  He
  He174    1.0000 0.30372  0.17267  0.62419  Biso   1.000  He
  Ne174    1.0000 0.33081  0.18382  0.63719  Biso   1.000  Ne
  Ne175    1.0000 0.76012  0.39687  0.77556  Biso   1.000  Ne
  He175    1.0000 0.75155  0.36632  0.76774  Biso   1.000  He
  He176    1.0000 0.76514  0.34225  0.79044  Biso   1.000  He
  Ne176    1.0000 0.76165  0.31194  0.78135  Biso   1.000  Ne
  Ne177    1.0000 0.44473  0.95357  0.52893  Biso   1.000  Ne
  He177    1.0000 0.44349  0.93494  0.50105  Biso   1.000  He
  He178    1.0000 0.46744  0.91384  0.49975  Biso   1.000  He
  Ne178    1.0000 0.46946  0.89664  0.47290  Biso   1.000  Ne
  Ne179    1.0000 0.57582  0.56974  0.28303  Biso   1.000  Ne
  He179    1.0000 0.57754  0.59054  0.25897  Biso   1.000  He
  He180    1.0000 0.59648  0.61867  0.26993  Biso   1.000  He
  Ne180    1.0000 0.59183  0.64587  0.25098  Biso   1.000  Ne
  Ne181    1.0000 0.25729  0.42604  0.78664  Biso   1.000  Ne
  He181    1.0000 0.23982  0.41002  0.76301  Biso   1.000  He
  He182    1.0000 0.22152  0.43061  0.74530  Biso   1.000  He
  Ne182    1.0000 0.19588  0.41634  0.72508  Biso   1.000  Ne
  Ne183    1.0000 0.56986  0.85004  0.15919  Biso   1.000  Ne
  He183    1.0000 0.59364  0.87317  0.16575  Biso   1.000  He
  He184    1.0000 0.58030  0.90115  0.18280  Biso   1.000  He
  Ne184    1.0000 0.60611  0.92362  0.18710  Biso   1.000  Ne
  Ne185    1.0000 0.38648  0.36452  0.24230  Biso   1.000  Ne
  He185    1.0000 0.40750  0.36525  0.21559  Biso   1.000  He
  He186    1.0000 0.41790  0.39531  0.20599  Biso   1.000  He
  Ne186    1.0000 0.43975  0.39383  0.17904  Biso   1.000  Ne
  Ne187    1.0000 0.40324  0.55602  0.06756  Biso   1.000  Ne
  He187    1.0000 0.43111  0.54863  0.08465  Biso   1.000  He
  He188    1.0000 0.45937  0.55702  0.06939  Biso   1.000  He
  Ne188    1.0000 0.48558  0.55061  0.08699  Biso   1.000  Ne
  Ne189    1.0000 0.35830  0.11142  0.25506  Biso   1.000  Ne
  He189    1.0000 0.37641  0.11919  0.22892  Biso   1.000  He
  He190    1.0000 0.36442  0.14348  0.20857  Biso   1.000  He
  Ne190    1.0000 0.38354  0.14849  0.18317  Biso   1.000  Ne
  Ne191    1.0000 0.92496  0.90407  0.11206  Biso   1.000  Ne
  He191    1.0000 0.93574  0.93226  0.09994  Biso   1.000  He
  He192    1.0000 0.91714  0.94182  0.07395  Biso   1.000  He
  Ne192    1.0000 0.91921  0.97206  0.06179  Biso   1.000  Ne
  Ne193    1.0000 0.04664  0.80748  0.35204  Biso   1.000  Ne
  He193    1.0000 0.06544  0.81272  0.32426  Biso   1.000  He
  He194    1.0000 0.09464  0.79776  0.32483  Biso   1.000  He
  Ne194    1.0000 0.11598  0.80437  0.29906  Biso   1.000  Ne
  Ne195    1.0000 0.07216  0.43589  0.56766  Biso   1.000  Ne
  He195    1.0000 0.08528  0.41417  0.58712  Biso   1.000  He
  He196    1.0000 0.06491  0.38739  0.59089  Biso   1.000  He
  Ne196    1.0000 0.08292  0.36200  0.60746  Biso   1.000  Ne
  Ne197    1.0000 0.95693  0.54011  0.61406  Biso   1.000  Ne
  He197    1.0000 0.93753  0.55499  0.59076  Biso   1.000  He
  He198    1.0000 0.92525  0.58494  0.59977  Biso   1.000  He
  Ne198    1.0000 0.94141  0.61123  0.58790  Biso   1.000  Ne
  Ne199    1.0000 0.43704  0.91109  0.30779  Biso   1.000  Ne
  He199    1.0000 0.40757  0.90962  0.32453  Biso   1.000  He
  He200    1.0000 0.38107  0.89735  0.30831  Biso   1.000  He
  Ne200    1.0000 0.35167  0.90344  0.32080  Biso   1.000  Ne
  Ne201    1.0000 0.94304  0.06467  0.89761  Biso   1.000  Ne
  He201    1.0000 0.91214  0.07453  0.90704  Biso   1.000  He
  He202    1.0000 0.91091  0.08957  0.93720  Biso   1.000  He
  Ne202    1.0000 0.89963  0.06872  0.96292  Biso   1.000  Ne
  Ne203    1.0000 0.89200  0.67975  0.41279  Biso   1.000  Ne
  He203    1.0000 0.90863  0.68660  0.38457  Biso   1.000  He
  He204    1.0000 0.90780  0.72085  0.37618  Biso   1.000  He
  Ne204    1.0000 0.92397  0.72982  0.34886  Biso   1.000  Ne
  Ne205    1.0000 0.61345  0.68209  0.84899  Biso   1.000  Ne
  He205    1.0000 0.60409  0.67172  0.87902  Biso   1.000  He
  He206    1.0000 0.61776  0.69113  0.90336  Biso   1.000  He
  Ne206    1.0000 0.60964  0.68464  0.93568  Biso   1.000  Ne
  Ne207    1.0000 0.10064  0.40395  0.43086  Biso   1.000  Ne
  He207    1.0000 0.11372  0.37232  0.43440  Biso   1.000  He
  He208    1.0000 0.14606  0.37342  0.43896  Biso   1.000  He
  Ne208    1.0000 0.15804  0.34484  0.43608  Biso   1.000  Ne
  Ne209    1.0000 0.81011  0.66553  0.11826  Biso   1.000  Ne
  He209    1.0000 0.83219  0.64898  0.13813  Biso   1.000  He
  He210    1.0000 0.84031  0.66380  0.16558  Biso   1.000  He
  Ne210    1.0000 0.86279  0.64557  0.18162  Biso   1.000  Ne
  Ne211    1.0000 0.47351  0.54205  0.92147  Biso   1.000  Ne
  He211    1.0000 0.47978  0.55479  0.95037  Biso   1.000  He
  He212    1.0000 0.50787  0.54335  0.96424  Biso   1.000  He
  Ne212    1.0000 0.51575  0.55521  0.99599  Biso   1.000  Ne
  Ne213    1.0000 0.36564  0.18375  0.00434  Biso   1.000  Ne
  He213    1.0000 0.33330  0.18229  0.00773  Biso   1.000  He
  He214    1.0000 0.31988  0.17429  0.97856  Biso   1.000  He
  Ne214    1.0000 0.28620  0.16876  0.97658  Biso   1.000  Ne
  Ne215    1.0000 0.13714  0.88604  0.08052  Biso   1.000  Ne
  He215    1.0000 0.11789  0.91141  0.08363  Biso   1.000  He
  He216    1.0000 0.09881  0.90806  0.10883  Biso   1.000  He
  Ne216    1.0000 0.07840  0.93560  0.10729  Biso   1.000  Ne
  Ne217    1.0000 0.08002  0.39091  0.73504  Biso   1.000  Ne
  He217    1.0000 0.08791  0.39819  0.70224  Biso   1.000  He
  He218    1.0000 0.11963  0.40227  0.69897  Biso   1.000  He
  Ne218    1.0000 0.13105  0.40674  0.66534  Biso   1.000  Ne
  Ne219    1.0000 0.24819  0.41086  0.65967  Biso   1.000  Ne
  He219    1.0000 0.22318  0.39454  0.64544  Biso   1.000  He
  He220    1.0000 0.20267  0.41327  0.62702  Biso   1.000  He
  Ne220    1.0000 0.18151  0.39467  0.60952  Biso   1.000  Ne
  Ne221    1.0000 0.28559  0.88573  0.11177  Biso   1.000  Ne
  He221    1.0000 0.26322  0.88397  0.08546  Biso   1.000  He
  He222    1.0000 0.23731  0.90371  0.09067  Biso   1.000  He
  Ne222    1.0000 0.21155  0.89695  0.07123  Biso   1.000  Ne
  Ne223    1.0000 0.04058  0.51765  0.47020  Biso   1.000  Ne
  He223    1.0000 0.02070  0.54506  0.47315  Biso   1.000  He
  He224    1.0000 0.99858  0.54382  0.49583  Biso   1.000  He
  Ne224    1.0000 0.97960  0.56983  0.49313  Biso   1.000  Ne
  Ne225    1.0000 0.58045  0.31316  0.10395  Biso   1.000  Ne
  He225    1.0000 0.60671  0.32222  0.12194  Biso   1.000  He
  He226    1.0000 0.63460  0.32753  0.10575  Biso   1.000  He
  Ne226    1.0000 0.65827  0.33825  0.12825  Biso   1.000  Ne
  Ne227    1.0000 0.33686  0.57636  0.92248  Biso   1.000  Ne
  He227    1.0000 0.36773  0.58706  0.91967  Biso   1.000  He
  He228    1.0000 0.38501  0.56806  0.90120  Biso   1.000  He
  Ne228    1.0000 0.41173  0.58519  0.89210  Biso   1.000  Ne
  Ne229    1.0000 0.67520  0.40922  0.94886  Biso   1.000  Ne
  He229    1.0000 0.68845  0.37811  0.94526  Biso   1.000  He
  He230    1.0000 0.66654  0.35493  0.94779  Biso   1.000  He
  Ne230    1.0000 0.67975  0.32508  0.94464  Biso   1.000  Ne
  Ne231    1.0000 0.83231  0.76696  0.41181  Biso   1.000  Ne
  He231    1.0000 0.79976  0.76848  0.42007  Biso   1.000  He
  He232    1.0000 0.77846  0.78787  0.40515  Biso   1.000  He
  Ne232    1.0000 0.74612  0.79203  0.41684  Biso   1.000  Ne
  Ne233    1.0000 0.47378  0.03119  0.58031  Biso   1.000  Ne
  He233    1.0000 0.46130  0.03145  0.54932  Biso   1.000  He
  He234    1.0000 0.46389  0.06006  0.53531  Biso   1.000  He
  Ne234    1.0000 0.45490  0.06323  0.50552  Biso   1.000  Ne
  Ne235    1.0000 0.63376  0.68252  0.09927  Biso   1.000  Ne
  He235    1.0000 0.63019  0.70466  0.12503  Biso   1.000  He
  He236    1.0000 0.65662  0.72215  0.12653  Biso   1.000  He
  Ne236    1.0000 0.65634  0.74731  0.14919  Biso   1.000  Ne
  Ne237    1.0000 0.57993  0.41692  0.07100  Biso   1.000  Ne
  He237    1.0000 0.55052  0.42176  0.08739  Biso   1.000  He
  He238    1.0000 0.52199  0.42517  0.06840  Biso   1.000  He
  Ne238    1.0000 0.49518  0.43795  0.08709  Biso   1.000  Ne
  Ne239    1.0000 0.21601  0.83484  0.90284  Biso   1.000  Ne
  He239    1.0000 0.20359  0.82904  0.87393  Biso   1.000  He
  He240    1.0000 0.22390  0.84469  0.85193  Biso   1.000  He
  Ne240    1.0000 0.21581  0.84115  0.82011  Biso   1.000  Ne
  Ne241    1.0000 0.96817  0.70250  0.10163  Biso   1.000  Ne
  He241    1.0000 0.95332  0.68687  0.12786  Biso   1.000  He
  He242    1.0000 0.96867  0.68747  0.15465  Biso   1.000  He
  Ne242    1.0000 0.95460  0.67357  0.18158  Biso   1.000  Ne
  Ne243    1.0000 0.68928  0.56272  0.75791  Biso   1.000  Ne
  He243    1.0000 0.65717  0.55779  0.74944  Biso   1.000  He
  He244    1.0000 0.63493  0.57580  0.76151  Biso   1.000  He
  Ne244    1.0000 0.60619  0.57253  0.74759  Biso   1.000  Ne
  Ne245    1.0000 0.17375  0.57423  0.64459  Biso   1.000  Ne
  He245    1.0000 0.16729  0.57392  0.67653  Biso   1.000  He
  He246    1.0000 0.13333  0.56683  0.68487  Biso   1.000  He
  Ne246    1.0000 0.12732  0.56166  0.71827  Biso   1.000  Ne
  Ne247    1.0000 0.26464  0.72545  0.91210  Biso   1.000  Ne
  He247    1.0000 0.25855  0.69595  0.92854  Biso   1.000  He
  He248    1.0000 0.24499  0.67293  0.91212  Biso   1.000  He
  Ne248    1.0000 0.24572  0.64542  0.92472  Biso   1.000  Ne
  Ne249    1.0000 0.07219  0.01280  0.93898  Biso   1.000  Ne
  He249    1.0000 0.03941  0.01565  0.93492  Biso   1.000  He
  He250    1.0000 0.02318  0.01398  0.96292  Biso   1.000  He
  Ne250    1.0000 0.98750  0.01707  0.96136  Biso   1.000  Ne
  Ne251    1.0000 0.15443  0.91950  0.90465  Biso   1.000  Ne
  He251    1.0000 0.13871  0.91197  0.87720  Biso   1.000  He
  He252    1.0000 0.15472  0.91315  0.84719  Biso   1.000  He
  Ne252    1.0000 0.13604  0.91211  0.82020  Biso   1.000  Ne
  Ne253    1.0000 0.52373  0.78367  0.18755  Biso   1.000  Ne
  He253    1.0000 0.49592  0.79168  0.16904  Biso   1.000  He
  He254    1.0000 0.47004  0.77379  0.17600  Biso   1.000  He
  Ne254    1.0000 0.44031  0.78284  0.15711  Biso   1.000  Ne
  Ne255    1.0000 0.83077  0.13534  0.94746  Biso   1.000  Ne
  He255    1.0000 0.83704  0.16670  0.94234  Biso   1.000  He
  He256    1.0000 0.86031  0.17622  0.96201  Biso   1.000  He
  Ne256    1.0000 0.86004  0.21118  0.96713  Biso   1.000  Ne
  Ne257    1.0000 0.82618  0.05728  0.88116  Biso   1.000  Ne
  He257    1.0000 0.84183  0.08231  0.86841  Biso   1.000  He
  He258    1.0000 0.85675  0.07554  0.83920  Biso   1.000  He
  Ne258    1.0000 0.87263  0.10226  0.82699  Biso   1.000  Ne
  Ne259    1.0000 0.43420  0.14733  0.43428  Biso   1.000  Ne
  He259    1.0000 0.43926  0.16666  0.41040  Biso   1.000  He
  He260    1.0000 0.43263  0.15362  0.38046  Biso   1.000  He
  Ne260    1.0000 0.43324  0.17439  0.35327  Biso   1.000  Ne
  Ne261    1.0000 0.57042  0.59109  0.94411  Biso   1.000  Ne
  He261    1.0000 0.57903  0.58801  0.91460  Biso   1.000  He
  He262    1.0000 0.60326  0.56935  0.90571  Biso   1.000  He
  Ne262    1.0000 0.60943  0.56971  0.87516  Biso   1.000  Ne
  Ne263    1.0000 0.93113  0.33392  0.40307  Biso   1.000  Ne
  He263    1.0000 0.92267  0.32094  0.42972  Biso   1.000  He
  He264    1.0000 0.91523  0.28847  0.42613  Biso   1.000  He
  Ne264    1.0000 0.91138  0.27238  0.45424  Biso   1.000  Ne
  Ne265    1.0000 0.13605  0.30967  0.72823  Biso   1.000  Ne
  He265    1.0000 0.13423  0.30177  0.69711  Biso   1.000  He
  He266    1.0000 0.10720  0.30850  0.68344  Biso   1.000  He
  Ne266    1.0000 0.09743  0.29300  0.65460  Biso   1.000  Ne
  Ne267    1.0000 0.08134  0.66118  0.42053  Biso   1.000  Ne
  He267    1.0000 0.09565  0.62942  0.42104  Biso   1.000  He
  He268    1.0000 0.07471  0.60409  0.42870  Biso   1.000  He
  Ne268    1.0000 0.09045  0.57516  0.42546  Biso   1.000  Ne
  Ne269    1.0000 0.03378  0.89803  0.04638  Biso   1.000  Ne
  He269    1.0000 0.00553  0.91479  0.03816  Biso   1.000  He
  He270    1.0000 0.01218  0.94339  0.02831  Biso   1.000  He
  Ne270    1.0000 0.98679  0.96490  0.02877  Biso   1.000  Ne
  Ne271    1.0000 0.79605  0.96439  0.65626  Biso   1.000  Ne
  He271    1.0000 0.82803  0.95904  0.66244  Biso   1.000  He
  He272    1.0000 0.84289  0.98466  0.67800  Biso   1.000  He
  Ne272    1.0000 0.84589  0.98468  0.71162  Biso   1.000  Ne
  Ne273    1.0000 0.92385  0.61072  0.34138  Biso   1.000  Ne
  He273    1.0000 0.89119  0.60625  0.33746  Biso   1.000  He
  He274    1.0000 0.87736  0.57756  0.34727  Biso   1.000  He
  Ne274    1.0000 0.84447  0.57802  0.34170  Biso   1.000  Ne
  Ne275    1.0000 0.60751  0.14884  0.42944  Biso   1.000  Ne
  He275    1.0000 0.60233  0.17875  0.41569  Biso   1.000  He
  He276    1.0000 0.60605  0.18034  0.38289  Biso   1.000  He
  Ne276    1.0000 0.60057  0.21094  0.36785  Biso   1.000  Ne
  Ne277    1.0000 0.24475  0.22879  0.62588  Biso   1.000  Ne
  He277    1.0000 0.21292  0.23513  0.63044  Biso   1.000  He
  He278    1.0000 0.20023  0.25546  0.60847  Biso   1.000  He
  Ne278    1.0000 0.16773  0.25977  0.61025  Biso   1.000  Ne
  Ne279    1.0000 0.43493  0.56853  0.79736  Biso   1.000  Ne
  He279    1.0000 0.40917  0.58866  0.79628  Biso   1.000  He
  He280    1.0000 0.41767  0.61819  0.81108  Biso   1.000  He
  Ne280    1.0000 0.39281  0.63724  0.81376  Biso   1.000  Ne
  Ne281    1.0000 0.11073  0.82401  0.19759  Biso   1.000  Ne
  He281    1.0000 0.10119  0.85343  0.21287  Biso   1.000  He
  He282    1.0000 0.10170  0.87732  0.19134  Biso   1.000  He
  Ne282    1.0000 0.09264  0.90685  0.20247  Biso   1.000  Ne
  Ne283    1.0000 0.19924  0.55500  0.24564  Biso   1.000  Ne
  He283    1.0000 0.22317  0.54907  0.26674  Biso   1.000  He
  He284    1.0000 0.25265  0.55989  0.26136  Biso   1.000  He
  Ne284    1.0000 0.27390  0.55491  0.28825  Biso   1.000  Ne
  Ne285    1.0000 0.29228  0.84161  0.30082  Biso   1.000  Ne
  He285    1.0000 0.29585  0.83493  0.26873  Biso   1.000  He
  He286    1.0000 0.31773  0.80991  0.26476  Biso   1.000  He
  Ne286    1.0000 0.33249  0.80320  0.23509  Biso   1.000  Ne
  Ne287    1.0000 0.26173  0.60781  0.67098  Biso   1.000  Ne
  He287    1.0000 0.26830  0.59606  0.70328  Biso   1.000  He
  He288    1.0000 0.24239  0.59527  0.72343  Biso   1.000  He
  Ne288    1.0000 0.25078  0.59432  0.75769  Biso   1.000  Ne
  Ne289    1.0000 0.84183  0.61481  0.68081  Biso   1.000  Ne
  He289    1.0000 0.87405  0.62105  0.67640  Biso   1.000  He
  He290    1.0000 0.89196  0.60233  0.69627  Biso   1.000  He
  Ne290    1.0000 0.92487  0.59886  0.68559  Biso   1.000  Ne
  Ne291    1.0000 0.59043  0.10402  0.75760  Biso   1.000  Ne
  He291    1.0000 0.61631  0.09145  0.73902  Biso   1.000  He
  He292    1.0000 0.63820  0.11748  0.73324  Biso   1.000  He
  Ne292    1.0000 0.66017  0.10693  0.71578  Biso   1.000  Ne
  Ne293    1.0000 0.28712  0.84031  0.42837  Biso   1.000  Ne
  He293    1.0000 0.26999  0.86655  0.44266  Biso   1.000  He
  He294    1.0000 0.27895  0.89954  0.43157  Biso   1.000  He
  Ne294    1.0000 0.26125  0.91689  0.45275  Biso   1.000  Ne
  Ne295    1.0000 0.41109  0.38457  0.06259  Biso   1.000  Ne
  He295    1.0000 0.40873  0.38550  0.09420  Biso   1.000  He
  He296    1.0000 0.38094  0.40038  0.10051  Biso   1.000  He
  Ne296    1.0000 0.36864  0.39662  0.13223  Biso   1.000  Ne
  Ne297    1.0000 0.07984  0.73277  0.18404  Biso   1.000  Ne
  He297    1.0000 0.08546  0.72810  0.21526  Biso   1.000  He
  He298    1.0000 0.08211  0.69860  0.22426  Biso   1.000  He
  Ne298    1.0000 0.08696  0.69359  0.25915  Biso   1.000  Ne
  Ne299    1.0000 0.67994  0.59819  0.11005  Biso   1.000  Ne
  He299    1.0000 0.71253  0.60263  0.10488  Biso   1.000  He
  He300    1.0000 0.73077  0.57494  0.10847  Biso   1.000  He
  Ne300    1.0000 0.76145  0.57933  0.09975  Biso   1.000  Ne
