data_image0
_cell_length_a       46.5566
_cell_length_b       46.6001
_cell_length_c       46.5958
_cell_angle_alpha    90
_cell_angle_beta     90
_cell_angle_gamma    90

_symmetry_space_group_name_H-M    "P 1"
_symmetry_int_tables_number       1

loop_
  _symmetry_equiv_pos_as_xyz
  'x, y, z'

loop_
  _atom_site_label
  _atom_site_occupancy
  _atom_site_fract_x
  _atom_site_fract_y
  _atom_site_fract_z
  _atom_site_thermal_displace_type
  _atom_site_B_iso_or_equiv
  _atom_site_type_symbol
  Ne1      1.0000 0.55033  0.56453  0.03235  Biso   1.000  Ne
  He1      1.0000 0.53837  0.56011  0.00199  Biso   1.000  He
  He2      1.0000 0.56034  0.55894  0.97863  Biso   1.000  He
  Ne2      1.0000 0.54996  0.55366  0.94586  Biso   1.000  Ne
  Ne3      1.0000 0.09053  0.10121  0.17633  Biso   1.000  Ne
  He3      1.0000 0.08483  0.07252  0.15814  Biso   1.000  He
  He4      1.0000 0.07997  0.07518  0.12595  Biso   1.000  He
  Ne4      1.0000 0.07187  0.04318  0.11453  Biso   1.000  Ne
  Ne5      1.0000 0.47446  0.07233  0.54980  Biso   1.000  Ne
  He5      1.0000 0.48900  0.05865  0.57603  Biso   1.000  He
  He6      1.0000 0.50140  0.02689  0.57105  Biso   1.000  He
  Ne6      1.0000 0.51701  0.01686  0.59575  Biso   1.000  Ne
  Ne7      1.0000 0.87623  0.14829  0.07177  Biso   1.000  Ne
  He7      1.0000 0.88758  0.15403  0.09990  Biso   1.000  He
  He8      1.0000 0.91533  0.13611  0.10735  Biso   1.000  He
  Ne8      1.0000 0.92938  0.13720  0.13770  Biso   1.000  Ne
  Ne9      1.0000 0.45984  0.95477  0.53052  Biso   1.000  Ne
  He9      1.0000 0.47576  0.94962  0.56052  Biso   1.000  He
  He10     1.0000 0.49210  0.92287  0.56180  Biso   1.000  He
  Ne10     1.0000 0.51087  0.91862  0.58839  Biso   1.000  Ne
  Ne11     1.0000 0.60425  0.62744  0.18378  Biso   1.000  Ne
  He11     1.0000 0.62437  0.62454  0.15887  Biso   1.000  He
  He12     1.0000 0.61741  0.63865  0.13061  Biso   1.000  He
  Ne12     1.0000 0.63947  0.63336  0.10666  Biso   1.000  Ne
  Ne13     1.0000 0.85921  0.61057  0.42950  Biso   1.000  Ne
  He13     1.0000 0.88930  0.60235  0.42578  Biso   1.000  He
  He14     1.0000 0.90383  0.57425  0.43909  Biso   1.000  He
  Ne14     1.0000 0.93327  0.56607  0.42648  Biso   1.000  Ne
  Ne15     1.0000 0.94007  0.56880  0.59853  Biso   1.000  Ne
  He15     1.0000 0.90636  0.57546  0.60815  Biso   1.000  He
  He16     1.0000 0.89545  0.55671  0.63092  Biso   1.000  He
  Ne16     1.0000 0.86445  0.56230  0.64088  Biso   1.000  Ne
  Ne17     1.0000 0.62291  0.43264  0.97972  Biso   1.000  Ne
  He17     1.0000 0.60736  0.40291  0.98081  Biso   1.000  He
  He18     1.0000 0.59361  0.39509  0.95132  Biso   1.000  He
  Ne18     1.0000 0.58168  0.36818  0.94744  Biso   1.000  Ne
  Ne19     1.0000 0.53589  0.98682  0.42081  Biso   1.000  Ne
  He19     1.0000 0.53555  0.00293  0.44792  Biso   1.000  He
  He20     1.0000 0.50373  0.01371  0.45657  Biso   1.000  He
  Ne20     1.0000 0.49833  0.04667  0.45150  Biso   1.000  Ne
  Ne21     1.0000 0.04570  0.99003  0.94940  Biso   1.000  Ne
  He21     1.0000 0.06411  0.99423  0.97797  Biso   1.000  He
  He22     1.0000 0.09791  0.98856  0.97547  Biso   1.000  He
  Ne22     1.0000 0.11491  0.99027  0.00328  Biso   1.000  Ne
  Ne23     1.0000 0.41635  0.84866  0.37704  Biso   1.000  Ne
  He23     1.0000 0.44128  0.86244  0.39776  Biso   1.000  He
  He24     1.0000 0.42934  0.87702  0.42466  Biso   1.000  He
  Ne24     1.0000 0.45520  0.89137  0.44570  Biso   1.000  Ne
  Ne25     1.0000 0.91597  0.04249  0.09107  Biso   1.000  Ne
  He25     1.0000 0.94280  0.03025  0.07862  Biso   1.000  He
  He26     1.0000 0.96846  0.04473  0.09029  Biso   1.000  He
  Ne26     1.0000 0.99519  0.03308  0.07954  Biso   1.000  Ne
  Ne27     1.0000 0.94069  0.80563  0.93971  Biso   1.000  Ne
  He27     1.0000 0.92825  0.83310  0.94706  Biso   1.000  He
  He28     1.0000 0.89458  0.83317  0.94491  Biso   1.000  He
  Ne28     1.0000 0.88279  0.86510  0.94195  Biso   1.000  Ne
  Ne29     1.0000 0.09887  0.31426  0.68649  Biso   1.000  Ne
  He29     1.0000 0.10465  0.32053  0.65412  Biso   1.000  He
  He30     1.0000 0.13081  0.30615  0.64518  Biso   1.000  He
  Ne30     1.0000 0.13115  0.30931  0.61231  Biso   1.000  Ne
  Ne31     1.0000 0.09879  0.59744  0.63325  Biso   1.000  Ne
  He31     1.0000 0.10672  0.56463  0.62802  Biso   1.000  He
  He32     1.0000 0.13592  0.55791  0.63893  Biso   1.000  He
  Ne32     1.0000 0.13568  0.54986  0.67023  Biso   1.000  Ne
  Ne33     1.0000 0.87395  0.91352  0.15104  Biso   1.000  Ne
  He33     1.0000 0.86229  0.88719  0.13588  Biso   1.000  He
  He34     1.0000 0.88206  0.87198  0.11314  Biso   1.000  He
  Ne34     1.0000 0.86841  0.84209  0.10638  Biso   1.000  Ne
  Ne35     1.0000 0.50750  0.41427  0.08041  Biso   1.000  Ne
  He35     1.0000 0.48369  0.39946  0.09931  Biso   1.000  He
  He36     1.0000 0.45811  0.42370  0.10379  Biso   1.000  He
  Ne36     1.0000 0.43417  0.41541  0.12383  Biso   1.000  Ne
  Ne37     1.0000 0.58495  0.92912  0.44268  Biso   1.000  Ne
  He37     1.0000 0.58490  0.91570  0.47197  Biso   1.000  He
  He38     1.0000 0.57335  0.93402  0.49277  Biso   1.000  He
  Ne38     1.0000 0.56593  0.91959  0.52168  Biso   1.000  Ne
  Ne39     1.0000 0.96508  0.88381  0.86829  Biso   1.000  Ne
  He39     1.0000 0.95429  0.89116  0.89994  Biso   1.000  He
  He40     1.0000 0.96648  0.91779  0.91193  Biso   1.000  He
  Ne40     1.0000 0.95602  0.91791  0.94580  Biso   1.000  Ne
  Ne41     1.0000 0.65852  0.06729  0.59678  Biso   1.000  Ne
  He41     1.0000 0.62835  0.05657  0.58799  Biso   1.000  He
  He42     1.0000 0.62702  0.03003  0.56933  Biso   1.000  He
  Ne42     1.0000 0.59575  0.02238  0.56273  Biso   1.000  Ne
  Ne43     1.0000 0.64340  0.58558  0.93264  Biso   1.000  Ne
  He43     1.0000 0.67514  0.57488  0.93193  Biso   1.000  He
  He44     1.0000 0.69602  0.59734  0.93539  Biso   1.000  He
  Ne44     1.0000 0.72540  0.58663  0.92906  Biso   1.000  Ne
  Ne45     1.0000 0.35663  0.34409  0.13623  Biso   1.000  Ne
  He45     1.0000 0.38513  0.32927  0.12412  Biso   1.000  He
  He46     1.0000 0.38324  0.29699  0.11643  Biso   1.000  He
  Ne46     1.0000 0.41207  0.28215  0.10422  Biso   1.000  Ne
  Ne47     1.0000 0.42829  0.86672  0.59200  Biso   1.000  Ne
  He47     1.0000 0.41097  0.84833  0.60927  Biso   1.000  He
  He48     1.0000 0.39530  0.82450  0.59110  Biso   1.000  He
  Ne48     1.0000 0.37433  0.80542  0.61023  Biso   1.000  Ne
  Ne49     1.0000 0.64844  0.39985  0.23007  Biso   1.000  Ne
  He49     1.0000 0.62513  0.39883  0.20845  Biso   1.000  He
  He50     1.0000 0.63712  0.40088  0.17602  Biso   1.000  He
  Ne50     1.0000 0.61209  0.40164  0.15302  Biso   1.000  Ne
  Ne51     1.0000 0.01319  0.40763  0.56435  Biso   1.000  Ne
  He51     1.0000 0.01593  0.43551  0.58035  Biso   1.000  He
  He52     1.0000 0.98622  0.44521  0.59131  Biso   1.000  He
  Ne52     1.0000 0.98655  0.47631  0.60352  Biso   1.000  Ne
  Ne53     1.0000 0.09993  0.45351  0.53966  Biso   1.000  Ne
  He53     1.0000 0.11617  0.43720  0.56450  Biso   1.000  He
  He54     1.0000 0.10212  0.41666  0.58711  Biso   1.000  He
  Ne54     1.0000 0.12270  0.40353  0.60952  Biso   1.000  Ne
  Ne55     1.0000 0.63862  0.56702  0.83034  Biso   1.000  Ne
  He55     1.0000 0.63816  0.59662  0.81573  Biso   1.000  He
  He56     1.0000 0.61267  0.60171  0.79307  Biso   1.000  He
  Ne56     1.0000 0.61537  0.63093  0.77667  Biso   1.000  Ne
  Ne57     1.0000 0.61262  0.12552  0.68106  Biso   1.000  Ne
  He57     1.0000 0.61077  0.12230  0.64795  Biso   1.000  He
  He58     1.0000 0.59918  0.14707  0.63010  Biso   1.000  He
  Ne58     1.0000 0.59925  0.14317  0.59818  Biso   1.000  Ne
  Ne59     1.0000 0.11364  0.76863  0.16961  Biso   1.000  Ne
  He59     1.0000 0.10508  0.77552  0.13595  Biso   1.000  He
  He60     1.0000 0.11957  0.80231  0.12591  Biso   1.000  He
  Ne60     1.0000 0.11394  0.80694  0.09313  Biso   1.000  Ne
  Ne61     1.0000 0.83897  0.07665  0.16776  Biso   1.000  Ne
  He61     1.0000 0.87174  0.08033  0.16564  Biso   1.000  He
  He62     1.0000 0.88640  0.07525  0.19631  Biso   1.000  He
  Ne62     1.0000 0.91754  0.07847  0.19471  Biso   1.000  Ne
  Ne63     1.0000 0.17044  0.06208  0.12516  Biso   1.000  Ne
  He63     1.0000 0.19218  0.06506  0.14873  Biso   1.000  He
  He64     1.0000 0.17622  0.07025  0.17811  Biso   1.000  He
  Ne64     1.0000 0.19812  0.08227  0.20311  Biso   1.000  Ne
  Ne65     1.0000 0.45405  0.65684  0.92220  Biso   1.000  Ne
  He65     1.0000 0.45489  0.66001  0.89007  Biso   1.000  He
  He66     1.0000 0.45601  0.69141  0.87908  Biso   1.000  He
  Ne66     1.0000 0.45998  0.69484  0.84722  Biso   1.000  Ne
  Ne67     1.0000 0.59481  0.11247  0.42996  Biso   1.000  Ne
  He67     1.0000 0.59247  0.08209  0.43954  Biso   1.000  He
  He68     1.0000 0.61569  0.06581  0.43095  Biso   1.000  He
  Ne68     1.0000 0.61448  0.03709  0.44114  Biso   1.000  Ne
  Ne69     1.0000 0.30185  0.23930  0.14058  Biso   1.000  Ne
  He69     1.0000 0.27419  0.25926  0.14042  Biso   1.000  He
  He70     1.0000 0.27450  0.28431  0.11758  Biso   1.000  He
  Ne70     1.0000 0.24645  0.30207  0.11561  Biso   1.000  Ne
  Ne71     1.0000 0.71990  0.60308  0.10813  Biso   1.000  Ne
  He71     1.0000 0.70850  0.57424  0.11547  Biso   1.000  He
  He72     1.0000 0.68925  0.57438  0.14308  Biso   1.000  He
  Ne72     1.0000 0.67095  0.54692  0.14689  Biso   1.000  Ne
  Ne73     1.0000 0.47693  0.52836  0.08518  Biso   1.000  Ne
  He73     1.0000 0.46568  0.55801  0.07975  Biso   1.000  He
  He74     1.0000 0.46917  0.57469  0.10786  Biso   1.000  He
  Ne74     1.0000 0.45537  0.60492  0.10772  Biso   1.000  Ne
  Ne75     1.0000 0.95848  0.01073  0.98591  Biso   1.000  Ne
  He75     1.0000 0.95889  0.03704  0.97108  Biso   1.000  He
  He76     1.0000 0.98399  0.04486  0.95371  Biso   1.000  He
  Ne76     1.0000 0.98236  0.07239  0.93842  Biso   1.000  Ne
  Ne77     1.0000 0.38715  0.13733  0.37269  Biso   1.000  Ne
  He77     1.0000 0.40985  0.13928  0.39747  Biso   1.000  He
  He78     1.0000 0.41687  0.17248  0.40448  Biso   1.000  He
  Ne78     1.0000 0.44285  0.17660  0.42500  Biso   1.000  Ne
  Ne79     1.0000 0.04046  0.49099  0.43293  Biso   1.000  Ne
  He79     1.0000 0.01226  0.49748  0.44340  Biso   1.000  He
  He80     1.0000 0.99301  0.46935  0.44982  Biso   1.000  He
  Ne80     1.0000 0.96436  0.47572  0.46036  Biso   1.000  Ne
  Ne81     1.0000 0.10491  0.07690  0.94710  Biso   1.000  Ne
  He81     1.0000 0.09729  0.07956  0.91420  Biso   1.000  He
  He82     1.0000 0.11104  0.05816  0.89544  Biso   1.000  He
  Ne82     1.0000 0.10383  0.05910  0.86301  Biso   1.000  Ne
  Ne83     1.0000 0.95325  0.34089  0.44429  Biso   1.000  Ne
  He83     1.0000 0.92706  0.36037  0.43528  Biso   1.000  He
  He84     1.0000 0.92418  0.38718  0.45463  Biso   1.000  He
  Ne84     1.0000 0.89899  0.40748  0.44595  Biso   1.000  Ne
  Ne85     1.0000 0.59707  0.64489  0.26240  Biso   1.000  Ne
  He85     1.0000 0.61042  0.66185  0.28497  Biso   1.000  He
  He86     1.0000 0.59482  0.66929  0.31276  Biso   1.000  He
  Ne86     1.0000 0.61502  0.68983  0.33100  Biso   1.000  Ne
  Ne87     1.0000 0.35375  0.57506  0.94396  Biso   1.000  Ne
  He87     1.0000 0.35481  0.60517  0.95616  Biso   1.000  He
  He88     1.0000 0.37186  0.62773  0.93628  Biso   1.000  He
  Ne88     1.0000 0.36719  0.65843  0.94680  Biso   1.000  Ne
  Ne89     1.0000 0.12768  0.58090  0.33002  Biso   1.000  Ne
  He89     1.0000 0.10840  0.57260  0.35274  Biso   1.000  He
  He90     1.0000 0.11890  0.57828  0.38391  Biso   1.000  He
  Ne90     1.0000 0.10140  0.56089  0.40825  Biso   1.000  Ne
  Ne91     1.0000 0.81086  0.88553  0.61772  Biso   1.000  Ne
  He91     1.0000 0.78667  0.90087  0.59903  Biso   1.000  He
  He92     1.0000 0.75537  0.89243  0.60584  Biso   1.000  He
  Ne92     1.0000 0.73038  0.91037  0.59492  Biso   1.000  Ne
  Ne93     1.0000 0.81481  0.04838  0.91679  Biso   1.000  Ne
  He93     1.0000 0.83820  0.07161  0.90859  Biso   1.000  He
  He94     1.0000 0.86783  0.06411  0.92393  Biso   1.000  He
  Ne94     1.0000 0.89536  0.07260  0.90911  Biso   1.000  Ne
  Ne95     1.0000 0.13811  0.90742  0.87175  Biso   1.000  Ne
  He95     1.0000 0.13759  0.87766  0.88257  Biso   1.000  He
  He96     1.0000 0.16028  0.87229  0.90105  Biso   1.000  He
  Ne96     1.0000 0.15833  0.84110  0.91203  Biso   1.000  Ne
  Ne97     1.0000 0.37261  0.06707  0.59553  Biso   1.000  Ne
  He97     1.0000 0.36139  0.08674  0.61772  Biso   1.000  He
  He98     1.0000 0.33749  0.07223  0.63952  Biso   1.000  He
  Ne98     1.0000 0.30626  0.07281  0.62747  Biso   1.000  Ne
  Ne99     1.0000 0.60871  0.88626  0.69719  Biso   1.000  Ne
  He99     1.0000 0.59249  0.89771  0.67259  Biso   1.000  He
  He100    1.0000 0.60593  0.90117  0.64523  Biso   1.000  He
  Ne100    1.0000 0.58778  0.92012  0.62545  Biso   1.000  Ne
  Ne101    1.0000 0.21724  0.37856  0.42381  Biso   1.000  Ne
  He101    1.0000 0.22282  0.38823  0.39082  Biso   1.000  He
  He102    1.0000 0.19440  0.40430  0.37493  Biso   1.000  He
  Ne102    1.0000 0.19542  0.40624  0.34131  Biso   1.000  Ne
  Ne103    1.0000 0.95974  0.82702  0.09855  Biso   1.000  Ne
  He103    1.0000 0.97086  0.85689  0.09149  Biso   1.000  He
  He104    1.0000 0.97601  0.88010  0.11457  Biso   1.000  He
  Ne104    1.0000 0.98671  0.91040  0.10489  Biso   1.000  Ne
  Ne105    1.0000 0.64489  0.67570  0.96074  Biso   1.000  Ne
  He105    1.0000 0.63321  0.70730  0.96436  Biso   1.000  He
  He106    1.0000 0.64408  0.72838  0.94607  Biso   1.000  He
  Ne106    1.0000 0.62769  0.75860  0.94916  Biso   1.000  Ne
  Ne107    1.0000 0.60786  0.76980  0.38311  Biso   1.000  Ne
  He107    1.0000 0.61751  0.76354  0.41146  Biso   1.000  He
  He108    1.0000 0.63241  0.79020  0.43017  Biso   1.000  He
  Ne108    1.0000 0.63801  0.78609  0.46316  Biso   1.000  Ne
  Ne109    1.0000 0.35057  0.17177  0.60329  Biso   1.000  Ne
  He109    1.0000 0.37668  0.15430  0.59031  Biso   1.000  He
  He110    1.0000 0.40695  0.16172  0.60313  Biso   1.000  He
  Ne110    1.0000 0.43031  0.14491  0.58442  Biso   1.000  Ne
  Ne111    1.0000 0.92892  0.93209  0.69758  Biso   1.000  Ne
  He111    1.0000 0.90088  0.95113  0.70482  Biso   1.000  He
  He112    1.0000 0.87161  0.94360  0.68760  Biso   1.000  He
  Ne112    1.0000 0.84296  0.96017  0.69721  Biso   1.000  Ne
  Ne113    1.0000 0.61904  0.32443  0.17320  Biso   1.000  Ne
  He113    1.0000 0.63312  0.31275  0.14688  Biso   1.000  He
  He114    1.0000 0.61251  0.31357  0.12057  Biso   1.000  He
  Ne114    1.0000 0.62566  0.30144  0.09305  Biso   1.000  Ne
  Ne115    1.0000 0.19835  0.09471  0.94119  Biso   1.000  Ne
  He115    1.0000 0.22576  0.07893  0.95157  Biso   1.000  He
  He116    1.0000 0.24503  0.09350  0.97603  Biso   1.000  He
  Ne116    1.0000 0.27263  0.07562  0.98334  Biso   1.000  Ne
  Ne117    1.0000 0.70562  0.82358  0.42661  Biso   1.000  Ne
  He117    1.0000 0.69985  0.85646  0.42871  Biso   1.000  He
  He118    1.0000 0.72190  0.87224  0.41107  Biso   1.000  He
  Ne118    1.0000 0.71507  0.90584  0.40981  Biso   1.000  Ne
  Ne119    1.0000 0.35561  0.04921  0.31957  Biso   1.000  Ne
  He119    1.0000 0.33712  0.06354  0.34481  Biso   1.000  He
  He120    1.0000 0.33861  0.05049  0.37103  Biso   1.000  He
  Ne120    1.0000 0.31478  0.05596  0.39293  Biso   1.000  Ne
