data_image0
_cell_length_a       46.8109
_cell_length_b       47.0065
_cell_length_c       46.5751
_cell_angle_alpha    90
_cell_angle_beta     90
_cell_angle_gamma    90

_symmetry_space_group_name_H-M    "P 1"
_symmetry_int_tables_number       1

loop_
  _symmetry_equiv_pos_as_xyz
  'x, y, z'

loop_
  _atom_site_label
  _atom_site_occupancy
  _atom_site_fract_x
  _atom_site_fract_y
  _atom_site_fract_z
  _atom_site_thermal_displace_type
  _atom_site_B_iso_or_equiv
  _atom_site_type_symbol
  Ne1      1.0000 0.83847  0.14663  0.03594  Biso   1.000  Ne
  He1      1.0000 0.85742  0.16479  0.05170  Biso   1.000  He
  He2      1.0000 0.88670  0.15367  0.05534  Biso   1.000  He
  Ne2      1.0000 0.91048  0.16845  0.07132  Biso   1.000  Ne
  Ne3      1.0000 0.19263  0.09332  0.15972  Biso   1.000  Ne
  He3      1.0000 0.22458  0.09735  0.16442  Biso   1.000  He
  He4      1.0000 0.24066  0.10135  0.13536  Biso   1.000  He
  Ne4      1.0000 0.27413  0.10587  0.13865  Biso   1.000  Ne
  Ne5      1.0000 0.12885  0.64066  0.57610  Biso   1.000  Ne
  He5      1.0000 0.14808  0.66636  0.57490  Biso   1.000  He
  He6      1.0000 0.17854  0.65667  0.56295  Biso   1.000  He
  Ne6      1.0000 0.19813  0.68336  0.56518  Biso   1.000  Ne
  Ne7      1.0000 0.41351  0.12907  0.26775  Biso   1.000  Ne
  He7      1.0000 0.39969  0.15055  0.29140  Biso   1.000  He
  He8      1.0000 0.42454  0.16542  0.30726  Biso   1.000  He
  Ne8      1.0000 0.41925  0.18946  0.33100  Biso   1.000  Ne
  Ne9      1.0000 0.13281  0.11471  0.86361  Biso   1.000  Ne
  He9      1.0000 0.10702  0.10175  0.84249  Biso   1.000  He
  He10     1.0000 0.11217  0.09930  0.81034  Biso   1.000  He
  Ne10     1.0000 0.08329  0.09191  0.79287  Biso   1.000  Ne
  Ne11     1.0000 0.60368  0.33216  0.91494  Biso   1.000  Ne
  He11     1.0000 0.63173  0.35061  0.90791  Biso   1.000  He
  He12     1.0000 0.65819  0.33235  0.89827  Biso   1.000  He
  Ne12     1.0000 0.68611  0.34830  0.89331  Biso   1.000  Ne
  Ne13     1.0000 0.22124  0.90924  0.88824  Biso   1.000  Ne
  He13     1.0000 0.21050  0.88380  0.86701  Biso   1.000  He
  He14     1.0000 0.21052  0.89515  0.83467  Biso   1.000  He
  Ne14     1.0000 0.18171  0.91217  0.82207  Biso   1.000  Ne
  Ne15     1.0000 0.59177  0.05494  0.29861  Biso   1.000  Ne
  He15     1.0000 0.59784  0.06272  0.26754  Biso   1.000  He
  He16     1.0000 0.62810  0.07289  0.26060  Biso   1.000  He
  Ne16     1.0000 0.63601  0.07753  0.22999  Biso   1.000  Ne
  Ne17     1.0000 0.46398  0.43562  0.89935  Biso   1.000  Ne
  He17     1.0000 0.44196  0.43138  0.92336  Biso   1.000  He
  He18     1.0000 0.42381  0.40441  0.92307  Biso   1.000  He
  Ne18     1.0000 0.39581  0.40487  0.90723  Biso   1.000  Ne
  Ne19     1.0000 0.61902  0.16881  0.31656  Biso   1.000  Ne
  He19     1.0000 0.60105  0.15632  0.33873  Biso   1.000  He
  He20     1.0000 0.59933  0.12452  0.33535  Biso   1.000  He
  Ne20     1.0000 0.58659  0.10660  0.36305  Biso   1.000  Ne
  Ne21     1.0000 0.65282  0.89632  0.37933  Biso   1.000  Ne
  He21     1.0000 0.67178  0.87076  0.37229  Biso   1.000  He
  He22     1.0000 0.69579  0.87787  0.35051  Biso   1.000  He
  Ne22     1.0000 0.71734  0.85222  0.34845  Biso   1.000  Ne
  Ne23     1.0000 0.42826  0.14631  0.59289  Biso   1.000  Ne
  He23     1.0000 0.41002  0.15741  0.56930  Biso   1.000  He
  He24     1.0000 0.41348  0.19093  0.56366  Biso   1.000  He
  Ne24     1.0000 0.39326  0.21100  0.57844  Biso   1.000  Ne
  Ne25     1.0000 0.14089  0.79818  0.04883  Biso   1.000  Ne
  He25     1.0000 0.12748  0.78069  0.07290  Biso   1.000  He
  He26     1.0000 0.11522  0.79979  0.09851  Biso   1.000  He
  Ne26     1.0000 0.09992  0.77968  0.11830  Biso   1.000  Ne
  Ne27     1.0000 0.62061  0.03139  0.41019  Biso   1.000  Ne
  He27     1.0000 0.59191  0.01516  0.40684  Biso   1.000  He
  He28     1.0000 0.59419  0.98376  0.41829  Biso   1.000  He
  Ne28     1.0000 0.56592  0.96750  0.41450  Biso   1.000  Ne
  Ne29     1.0000 0.69533  0.12375  0.38797  Biso   1.000  Ne
  He29     1.0000 0.69532  0.15494  0.39974  Biso   1.000  He
  He30     1.0000 0.70118  0.17716  0.37735  Biso   1.000  He
  Ne30     1.0000 0.69345  0.20881  0.38463  Biso   1.000  Ne
  Ne31     1.0000 0.07467  0.08232  0.06295  Biso   1.000  Ne
  He31     1.0000 0.09632  0.09461  0.04000  Biso   1.000  He
  He32     1.0000 0.11222  0.12272  0.04702  Biso   1.000  He
  Ne32     1.0000 0.14188  0.11747  0.05935  Biso   1.000  Ne
  Ne33     1.0000 0.93071  0.03740  0.91026  Biso   1.000  Ne
  He33     1.0000 0.95788  0.05607  0.91386  Biso   1.000  He
  He34     1.0000 0.98308  0.03850  0.92587  Biso   1.000  He
  Ne34     1.0000 0.00679  0.05648  0.93577  Biso   1.000  Ne
  Ne35     1.0000 0.79800  0.92665  0.07192  Biso   1.000  Ne
  He35     1.0000 0.82387  0.90700  0.08314  Biso   1.000  He
  He36     1.0000 0.84892  0.91952  0.10009  Biso   1.000  He
  Ne36     1.0000 0.87578  0.92027  0.08250  Biso   1.000  Ne
  Ne37     1.0000 0.93399  0.37477  0.64097  Biso   1.000  Ne
  He37     1.0000 0.93000  0.39115  0.61209  Biso   1.000  He
  He38     1.0000 0.95520  0.39990  0.59623  Biso   1.000  He
  Ne38     1.0000 0.94696  0.41949  0.56878  Biso   1.000  Ne
  Ne39     1.0000 0.61924  0.40488  0.15071  Biso   1.000  Ne
  He39     1.0000 0.61442  0.38117  0.17008  Biso   1.000  He
  He40     1.0000 0.60352  0.39094  0.19934  Biso   1.000  He
  Ne40     1.0000 0.59846  0.36512  0.21832  Biso   1.000  Ne
  Ne41     1.0000 0.40446  0.55852  0.85969  Biso   1.000  Ne
  He41     1.0000 0.38282  0.57440  0.84266  Biso   1.000  He
  He42     1.0000 0.36938  0.55884  0.81807  Biso   1.000  He
  Ne42     1.0000 0.37842  0.57147  0.78689  Biso   1.000  Ne
  Ne43     1.0000 0.41171  0.58937  0.17055  Biso   1.000  Ne
  He43     1.0000 0.42924  0.61023  0.15318  Biso   1.000  He
  He44     1.0000 0.41541  0.61985  0.12572  Biso   1.000  He
  Ne44     1.0000 0.42986  0.64518  0.10798  Biso   1.000  Ne
  Ne45     1.0000 0.45144  0.93092  0.55352  Biso   1.000  Ne
  He45     1.0000 0.44533  0.89844  0.56332  Biso   1.000  He
  He46     1.0000 0.45102  0.87281  0.54124  Biso   1.000  He
  Ne46     1.0000 0.44542  0.83917  0.55190  Biso   1.000  Ne
  Ne47     1.0000 0.62707  0.36088  0.82771  Biso   1.000  Ne
  He47     1.0000 0.62792  0.35921  0.79550  Biso   1.000  He
  He48     1.0000 0.63169  0.39080  0.78337  Biso   1.000  He
  Ne48     1.0000 0.62671  0.39864  0.75085  Biso   1.000  Ne
  Ne49     1.0000 0.63421  0.04805  0.53921  Biso   1.000  Ne
  He49     1.0000 0.61204  0.06031  0.55942  Biso   1.000  He
  He50     1.0000 0.60869  0.09397  0.55627  Biso   1.000  He
  Ne50     1.0000 0.58933  0.10587  0.57730  Biso   1.000  Ne
  Ne51     1.0000 0.85165  0.06954  0.17140  Biso   1.000  Ne
  He51     1.0000 0.88209  0.06560  0.16123  Biso   1.000  He
  He52     1.0000 0.90565  0.05231  0.18040  Biso   1.000  He
  Ne52     1.0000 0.93461  0.04867  0.16448  Biso   1.000  Ne
  Ne53     1.0000 0.92104  0.30603  0.41662  Biso   1.000  Ne
  He53     1.0000 0.89434  0.32678  0.40944  Biso   1.000  He
  He54     1.0000 0.89851  0.35893  0.42019  Biso   1.000  He
  Ne54     1.0000 0.87045  0.37827  0.41458  Biso   1.000  Ne
  Ne55     1.0000 0.93807  0.89498  0.15047  Biso   1.000  Ne
  He55     1.0000 0.92280  0.88348  0.17356  Biso   1.000  He
  He56     1.0000 0.89056  0.89104  0.17109  Biso   1.000  He
  Ne56     1.0000 0.88009  0.88966  0.20305  Biso   1.000  Ne
  Ne57     1.0000 0.08229  0.09481  0.15202  Biso   1.000  Ne
  He57     1.0000 0.08098  0.09893  0.18457  Biso   1.000  He
  He58     1.0000 0.10560  0.08689  0.20418  Biso   1.000  He
  Ne58     1.0000 0.09972  0.08945  0.23995  Biso   1.000  Ne
  Ne59     1.0000 0.93867  0.51218  0.43165  Biso   1.000  Ne
  He59     1.0000 0.91833  0.53807  0.42451  Biso   1.000  He
  He60     1.0000 0.89705  0.53194  0.39994  Biso   1.000  He
  Ne60     1.0000 0.87816  0.55755  0.39318  Biso   1.000  Ne
  Ne61     1.0000 0.10609  0.40286  0.62727  Biso   1.000  Ne
  He61     1.0000 0.09793  0.39540  0.59797  Biso   1.000  He
  He62     1.0000 0.11913  0.40228  0.57270  Biso   1.000  He
  Ne62     1.0000 0.10808  0.39165  0.54272  Biso   1.000  Ne
  Ne63     1.0000 0.92760  0.55274  0.25428  Biso   1.000  Ne
  He63     1.0000 0.91986  0.56045  0.28619  Biso   1.000  He
  He64     1.0000 0.91593  0.59257  0.28929  Biso   1.000  He
  Ne64     1.0000 0.90602  0.60359  0.31766  Biso   1.000  Ne
  Ne65     1.0000 0.33520  0.38527  0.20930  Biso   1.000  Ne
  He65     1.0000 0.35896  0.39082  0.18743  Biso   1.000  He
  He66     1.0000 0.35341  0.37619  0.15699  Biso   1.000  He
  Ne66     1.0000 0.37604  0.38406  0.13449  Biso   1.000  Ne
  Ne67     1.0000 0.45803  0.33487  0.83775  Biso   1.000  Ne
  He67     1.0000 0.44132  0.34035  0.86440  Biso   1.000  He
  He68     1.0000 0.43846  0.31176  0.88297  Biso   1.000  He
  Ne68     1.0000 0.42339  0.31623  0.90814  Biso   1.000  Ne
  Ne69     1.0000 0.08914  0.55055  0.54287  Biso   1.000  Ne
  He69     1.0000 0.07196  0.55859  0.51589  Biso   1.000  He
  He70     1.0000 0.07147  0.53407  0.49427  Biso   1.000  He
  Ne70     1.0000 0.05481  0.53949  0.46564  Biso   1.000  Ne
  Ne71     1.0000 0.12808  0.39800  0.35946  Biso   1.000  Ne
  He71     1.0000 0.14811  0.39510  0.33223  Biso   1.000  He
  He72     1.0000 0.17998  0.38791  0.34047  Biso   1.000  He
  Ne72     1.0000 0.19614  0.38406  0.31211  Biso   1.000  Ne
  Ne73     1.0000 0.34513  0.88965  0.64672  Biso   1.000  Ne
  He73     1.0000 0.34133  0.90830  0.61884  Biso   1.000  He
  He74     1.0000 0.35519  0.89393  0.59419  Biso   1.000  He
  Ne74     1.0000 0.35392  0.91048  0.56579  Biso   1.000  Ne
  Ne75     1.0000 0.61353  0.56037  0.88992  Biso   1.000  Ne
  He75     1.0000 0.62866  0.58934  0.87879  Biso   1.000  He
  He76     1.0000 0.61651  0.60324  0.85203  Biso   1.000  He
  Ne76     1.0000 0.63297  0.63040  0.84300  Biso   1.000  Ne
  Ne77     1.0000 0.94762  0.81701  0.07018  Biso   1.000  Ne
  He77     1.0000 0.91562  0.81218  0.07651  Biso   1.000  He
  He78     1.0000 0.89279  0.83296  0.06288  Biso   1.000  He
  Ne78     1.0000 0.85872  0.82679  0.06365  Biso   1.000  Ne
  Ne79     1.0000 0.27716  0.92272  0.36915  Biso   1.000  Ne
  He79     1.0000 0.29250  0.89909  0.38529  Biso   1.000  He
  He80     1.0000 0.32478  0.89993  0.37976  Biso   1.000  He
  Ne80     1.0000 0.33978  0.87489  0.39286  Biso   1.000  Ne
  Ne81     1.0000 0.43593  0.96826  0.43948  Biso   1.000  Ne
  He81     1.0000 0.43798  0.94581  0.41219  Biso   1.000  He
  He82     1.0000 0.45861  0.91829  0.41354  Biso   1.000  He
  Ne82     1.0000 0.46206  0.90391  0.38204  Biso   1.000  Ne
  Ne83     1.0000 0.20153  0.39509  0.56521  Biso   1.000  Ne
  He83     1.0000 0.20974  0.36605  0.57679  Biso   1.000  He
  He84     1.0000 0.18976  0.36027  0.60383  Biso   1.000  He
  Ne84     1.0000 0.19994  0.33510  0.62625  Biso   1.000  Ne
  Ne85     1.0000 0.49916  0.42291  0.03055  Biso   1.000  Ne
  He85     1.0000 0.47019  0.40802  0.02560  Biso   1.000  He
  He86     1.0000 0.44728  0.41792  0.04449  Biso   1.000  He
  Ne86     1.0000 0.41868  0.40788  0.03512  Biso   1.000  Ne
  Ne87     1.0000 0.44554  0.52535  0.04037  Biso   1.000  Ne
  He87     1.0000 0.48034  0.52626  0.04972  Biso   1.000  He
  He88     1.0000 0.49728  0.55518  0.04451  Biso   1.000  He
  Ne88     1.0000 0.53131  0.55427  0.05633  Biso   1.000  Ne
  Ne89     1.0000 0.54118  0.40280  0.95856  Biso   1.000  Ne
  He89     1.0000 0.56080  0.42879  0.94747  Biso   1.000  He
  He90     1.0000 0.56622  0.42872  0.91551  Biso   1.000  He
  Ne90     1.0000 0.58142  0.45549  0.90324  Biso   1.000  Ne
  Ne91     1.0000 0.08482  0.06505  0.93737  Biso   1.000  Ne
  He91     1.0000 0.08463  0.03481  0.92242  Biso   1.000  He
  He92     1.0000 0.07296  0.00877  0.93966  Biso   1.000  He
  Ne92     1.0000 0.07614  0.98186  0.92488  Biso   1.000  Ne
  Ne93     1.0000 0.30589  0.56394  0.06164  Biso   1.000  Ne
  He93     1.0000 0.33249  0.55622  0.08172  Biso   1.000  He
  He94     1.0000 0.36338  0.56354  0.06664  Biso   1.000  He
  Ne94     1.0000 0.38855  0.55483  0.08832  Biso   1.000  Ne
  Ne95     1.0000 0.98818  0.04378  0.05014  Biso   1.000  Ne
  He95     1.0000 0.95672  0.04075  0.05748  Biso   1.000  He
  He96     1.0000 0.93700  0.05879  0.03492  Biso   1.000  He
  Ne96     1.0000 0.90315  0.05798  0.04096  Biso   1.000  Ne
  Ne97     1.0000 0.05042  0.90490  0.00313  Biso   1.000  Ne
  He97     1.0000 0.02152  0.90548  0.02032  Biso   1.000  He
  He98     1.0000 0.01316  0.93309  0.02988  Biso   1.000  He
  Ne98     1.0000 0.98377  0.93568  0.04498  Biso   1.000  Ne
  Ne99     1.0000 0.17347  0.55861  0.63327  Biso   1.000  Ne
  He99     1.0000 0.18816  0.57113  0.60536  Biso   1.000  He
  He100    1.0000 0.17563  0.55717  0.57744  Biso   1.000  He
  Ne100    1.0000 0.19180  0.56239  0.55107  Biso   1.000  Ne
  Ne101    1.0000 0.95684  0.56810  0.62871  Biso   1.000  Ne
  He101    1.0000 0.94978  0.59462  0.60843  Biso   1.000  He
  He102    1.0000 0.93383  0.58549  0.57899  Biso   1.000  He
  Ne102    1.0000 0.93115  0.60695  0.55201  Biso   1.000  Ne
  Ne103    1.0000 0.14943  0.92239  0.04455  Biso   1.000  Ne
  He103    1.0000 0.12175  0.93286  0.05808  Biso   1.000  He
  He104    1.0000 0.12260  0.92968  0.09030  Biso   1.000  He
  Ne104    1.0000 0.09826  0.93850  0.10703  Biso   1.000  Ne
  Ne105    1.0000 0.02349  0.40267  0.50878  Biso   1.000  Ne
  He105    1.0000 0.04090  0.42785  0.49138  Biso   1.000  He
  He106    1.0000 0.06158  0.41476  0.46794  Biso   1.000  He
  Ne106    1.0000 0.08031  0.43683  0.45321  Biso   1.000  Ne
  Ne107    1.0000 0.17139  0.25731  0.56958  Biso   1.000  Ne
  He107    1.0000 0.14232  0.27518  0.56310  Biso   1.000  He
  He108    1.0000 0.13535  0.29688  0.58428  Biso   1.000  He
  Ne108    1.0000 0.10819  0.31588  0.57764  Biso   1.000  Ne
  Ne109    1.0000 0.93566  0.81516  0.87918  Biso   1.000  Ne
  He109    1.0000 0.92609  0.83360  0.85494  Biso   1.000  He
  He110    1.0000 0.93522  0.86528  0.85592  Biso   1.000  He
  Ne110    1.0000 0.92223  0.88284  0.83233  Biso   1.000  Ne
  Ne111    1.0000 0.08502  0.37583  0.26333  Biso   1.000  Ne
  He111    1.0000 0.06816  0.38295  0.23249  Biso   1.000  He
  He112    1.0000 0.06037  0.35464  0.21672  Biso   1.000  He
  Ne112    1.0000 0.04544  0.35879  0.18734  Biso   1.000  Ne
  Ne113    1.0000 0.44165  0.06732  0.34846  Biso   1.000  Ne
  He113    1.0000 0.43490  0.09535  0.36441  Biso   1.000  He
  He114    1.0000 0.40585  0.09624  0.37863  Biso   1.000  He
  Ne114    1.0000 0.40327  0.12261  0.39767  Biso   1.000  Ne
  Ne115    1.0000 0.56708  0.90376  0.49434  Biso   1.000  Ne
  He115    1.0000 0.58645  0.89903  0.52368  Biso   1.000  He
  He116    1.0000 0.57639  0.87335  0.54323  Biso   1.000  He
  Ne116    1.0000 0.59788  0.86588  0.56631  Biso   1.000  Ne
  Ne117    1.0000 0.56688  0.79303  0.71592  Biso   1.000  Ne
  He117    1.0000 0.58139  0.76627  0.72539  Biso   1.000  He
  He118    1.0000 0.59603  0.76981  0.75405  Biso   1.000  He
  Ne118    1.0000 0.61557  0.74695  0.76158  Biso   1.000  Ne
  Ne119    1.0000 0.61167  0.55399  0.04513  Biso   1.000  Ne
  He119    1.0000 0.61508  0.57915  0.06776  Biso   1.000  He
  He120    1.0000 0.60287  0.60745  0.05813  Biso   1.000  He
  Ne120    1.0000 0.60788  0.63137  0.08070  Biso   1.000  Ne
