data_MnRhMOF-1_opt

_audit_creation_method RASPA-1.0
_audit_creation_date 2019-12-6
_audit_author_name 'Jack Evans'

_cell_length_a    12.239
_cell_length_b    34.061
_cell_length_c    12.913
_cell_angle_alpha 90
_cell_angle_beta  99.45
_cell_angle_gamma 90
_cell_volume      5310.02

_symmetry_cell_setting          triclinic
_symmetry_space_group_name_Hall 'P 1'
_symmetry_space_group_name_H-M  'P 1'
_symmetry_Int_Tables_number     1

_symmetry_equiv_pos_as_xyz 'x,y,z'

loop_
_atom_site_label
_atom_site_type_symbol
_atom_site_fract_x
_atom_site_fract_y
_atom_site_fract_z
_atom_site_charge
B        B      0.614174000000     0.749626000000     0.645453000000     0.879585   
B        B      0.390468000000     0.249622000000     0.354542000000     0.877643   
C        C      0.847591000000     0.793170000000     0.283025000000    -0.051137   
C        C      0.152836000000     0.293155000000     0.716236000000    -0.051398   
C        C      0.154029000000     0.206551000000     0.716083000000    -0.05185    
C        C      0.847731000000     0.706565000000     0.282927000000    -0.054296   
C        C      0.841538000000     0.793052000000     0.173622000000    -0.106058   
C        C      0.159287000000     0.293169000000     0.825681000000    -0.104139   
C        C      0.159552000000     0.206755000000     0.825433000000    -0.108035   
C        C      0.841401000000     0.706630000000     0.173490000000    -0.104954   
C        C      0.173010000000     0.443493000000     0.350978000000     0.180493   
C        C      0.827691000000     0.943338000000     0.649498000000     0.183965   
C        C      0.828422000000     0.556197000000     0.648971000000     0.181405   
C        C      0.172501000000     0.055873000000     0.351139000000     0.180386   
C        C      0.189748000000     0.431201000000     0.555644000000     0.243151   
C        C      0.810897000000     0.931241000000     0.444999000000     0.244716   
C        C      0.810854000000     0.568332000000     0.444123000000     0.245363   
C        C      0.189609000000     0.068072000000     0.555915000000     0.239314   
C        C      0.207995000000     0.422952000000     0.447623000000    -0.224963   
C        C      0.792480000000     0.922901000000     0.552815000000    -0.227681   
C        C      0.792600000000     0.576530000000     0.552155000000    -0.226412   
C        C      0.207919000000     0.076306000000     0.447904000000    -0.222442   
C        C      0.141312000000     0.451139000000     0.879580000000     0.509294   
C        C      0.858947000000     0.951277000000     0.121427000000     0.511012   
C        C      0.859728000000     0.548689000000     0.120233000000     0.510626   
C        C      0.141481000000     0.048145000000     0.879918000000     0.504377   
C        C      0.161524000000     0.443740000000     0.769444000000    -0.065035   
C        C      0.839556000000     0.943993000000     0.231680000000    -0.067479   
C        C      0.839354000000     0.555965000000     0.230350000000    -0.067008   
C        C      0.161319000000     0.055520000000     0.769730000000    -0.061401   
C        C      0.486722000000     0.366541000000     0.198321000000     0.081977   
C        C      0.514583000000     0.865879000000     0.802487000000     0.081577   
C        C      0.514399000000     0.633292000000     0.801837000000     0.085882   
C        C      0.486345000000     0.132889000000     0.198099000000     0.084809   
C        C      0.701462000000     0.434536000000     0.130549000000    -0.151277   
C        C      0.299790000000     0.933779000000     0.868530000000    -0.145703   
C        C      0.299516000000     0.565353000000     0.869289000000    -0.150352   
C        C      0.700657000000     0.064903000000     0.129744000000    -0.152818   
C        C      0.650639000000     0.397213000000     0.124773000000     0.23997    
C        C      0.350589000000     0.896485000000     0.875604000000     0.237366   
C        C      0.350474000000     0.602652000000     0.875364000000     0.240253   
C        C      0.650035000000     0.102254000000     0.124165000000     0.241942   
C        C      0.292731000000     0.361014000000     0.245288000000     0.120048   
C        C      0.708473000000     0.860839000000     0.755221000000     0.121359   
C        C      0.708094000000     0.638613000000     0.754225000000     0.124023   
C        C      0.292663000000     0.138288000000     0.245732000000     0.124898   
C        C      0.533055000000     0.393689000000     0.136464000000    -0.148135   
C        C      0.467751000000     0.893090000000     0.863618000000    -0.145708   
C        C      0.468040000000     0.606125000000     0.863615000000    -0.149572   
C        C      0.532499000000     0.105794000000     0.135973000000    -0.148398   
C        C      0.226106000000     0.516746000000     0.122635000000     0.574033   
C        C      0.775533000000     0.017131000000     0.876893000000     0.578404   
C        C      0.775378000000     0.483089000000     0.877219000000     0.575129   
C        C      0.225514000000     0.982652000000     0.123571000000     0.574487   
C        C      0.811856000000     0.439197000000     0.120889000000     0.055854   
C        C      0.189753000000     0.938456000000     0.879154000000     0.047373   
C        C      0.189087000000     0.560724000000     0.878828000000     0.053666   
C        C      0.811031000000     0.060186000000     0.120125000000     0.054577   
C        C      0.996392000000     0.413789000000     0.095852000000     0.427248   
C        C      0.006438000000     0.912669000000     0.906483000000     0.437636   
C        C      0.004736000000     0.586139000000     0.904204000000     0.427164   
C        C      0.995792000000     0.085525000000     0.095589000000     0.427669   
C        C      0.294137000000     0.551437000000     0.164014000000    -0.063883   
C        C      0.707702000000     0.051916000000     0.835987000000    -0.065489   
C        C      0.707187000000     0.448428000000     0.835926000000    -0.066127   
C        C      0.293861000000     0.948033000000     0.164998000000    -0.063319   
C        C      0.879449000000     0.407000000000     0.104913000000    -0.090544   
C        C      0.123453000000     0.906251000000     0.897166000000    -0.083192   
C        C      0.121650000000     0.592931000000     0.895088000000    -0.089144   
C        C      0.878838000000     0.092353000000     0.104455000000    -0.089481   
C        C      0.443429000000     0.418732000000     0.092162000000     0.283077   
C        C      0.556314000000     0.918548000000     0.907356000000     0.280936   
C        C      0.557611000000     0.581028000000     0.907762000000     0.281697   
C        C      0.442802000000     0.080774000000     0.091710000000     0.281166   
C        C      0.718698000000     0.364821000000     0.109227000000    -0.165458   
C        C      0.283710000000     0.864075000000     0.893241000000    -0.159071   
C        C      0.282569000000     0.635054000000     0.891196000000    -0.165418   
C        C      0.718291000000     0.134621000000     0.108871000000    -0.16704    
C        C      0.419703000000     0.620435000000     0.222404000000     0.106221   
C        C      0.582246000000     0.120952000000     0.777884000000     0.106902   
C        C      0.581243000000     0.379513000000     0.777532000000     0.10485    
C        C      0.419786000000     0.879130000000     0.223043000000     0.102963   
C        C      0.265953000000     0.390104000000     0.420444000000     0.096213   
C        C      0.734328000000     0.890057000000     0.579787000000     0.103231   
C        C      0.733922000000     0.609222000000     0.579161000000     0.099626   
C        C      0.266476000000     0.109020000000     0.420822000000     0.094346   
C        C      0.830307000000     0.369405000000     0.100260000000     0.056213   
C        C      0.172450000000     0.868687000000     0.902993000000     0.048348   
C        C      0.170927000000     0.630503000000     0.900071000000     0.055263   
C        C      0.829916000000     0.129984000000     0.100018000000     0.055526   
C        C      0.187749000000     0.469316000000     0.597949000000    -0.147309   
C        C      0.813858000000     0.969420000000     0.403327000000    -0.151782   
C        C      0.814209000000     0.530237000000     0.401999000000    -0.152074   
C        C      0.186283000000     0.029942000000     0.597866000000    -0.146401   
C        C      0.483746000000     0.657123000000     0.246007000000     0.049626   
C        C      0.518133000000     0.157614000000     0.754165000000     0.047594   
C        C      0.517127000000     0.342848000000     0.753776000000     0.051176   
C        C      0.483864000000     0.842464000000     0.246465000000     0.049153   
C        C      0.171566000000     0.475347000000     0.701224000000     0.098338   
C        C      0.830322000000     0.975561000000     0.300190000000     0.101586   
C        C      0.830513000000     0.524300000000     0.298723000000     0.100406   
C        C      0.170120000000     0.023915000000     0.701143000000     0.091018   
C        C      0.111616000000     0.481386000000     0.334477000000     0.134596   
C        C      0.889482000000     0.981128000000     0.666527000000     0.136375   
C        C      0.890541000000     0.518457000000     0.665645000000     0.136041   
C        C      0.110459000000     0.018122000000     0.334452000000     0.134398   
C        C      0.470026000000     0.583109000000     0.231714000000    -0.002331   
C        C      0.531792000000     0.083648000000     0.768726000000    -0.004687   
C        C      0.531166000000     0.416879000000     0.767981000000     0.001036   
C        C      0.470144000000     0.916450000000     0.231566000000     0.002882   
C        C      0.447320000000     0.452137000000     0.018600000000    -0.005662   
C        C      0.551667000000     0.952152000000     0.980121000000    -0.010906   
C        C      0.553671000000     0.547587000000     0.981203000000    -0.002738   
C        C      0.446513000000     0.047433000000     0.017917000000    -0.003022   
C        C      0.538637000000     0.334057000000     0.266319000000    -0.00723    
C        C      0.463413000000     0.833045000000     0.735419000000    -0.009598   
C        C      0.462561000000     0.665863000000     0.734104000000    -0.007865   
C        C      0.538477000000     0.165337000000     0.266117000000    -0.009127   
C        C      0.163849000000     0.405664000000     0.728387000000     0.046828   
C        C      0.836297000000     0.905857000000     0.272124000000     0.048608   
C        C      0.835664000000     0.594021000000     0.271230000000     0.047139   
C        C      0.164856000000     0.093612000000     0.728993000000     0.043375   
C        C      0.243359000000     0.588655000000     0.158016000000     0.008083   
C        C      0.758599000000     0.089105000000     0.841928000000     0.007978   
C        C      0.757717000000     0.411166000000     0.842201000000     0.00802    
C        C      0.243084000000     0.910828000000     0.159854000000     0.005229   
C        C      0.568668000000     0.749754000000     0.375538000000     0.512669   
C        C      0.432898000000     0.250151000000     0.624238000000     0.51169    
C        C      0.567042000000     0.672093000000     0.192003000000    -0.035988   
C        C      0.434555000000     0.172513000000     0.807919000000    -0.03382    
C        C      0.433529000000     0.327904000000     0.807437000000    -0.03682    
C        C      0.567276000000     0.827584000000     0.192487000000    -0.035245   
C        C      0.304748000000     0.622340000000     0.187118000000    -0.113353   
C        C      0.697242000000     0.122820000000     0.812979000000    -0.112278   
C        C      0.696135000000     0.377523000000     0.813112000000    -0.112259   
C        C      0.304666000000     0.877181000000     0.188802000000    -0.110926   
C        C      0.407950000000     0.549120000000     0.204196000000     0.084215   
C        C      0.593789000000     0.049650000000     0.796163000000     0.083727   
C        C      0.593425000000     0.450825000000     0.795535000000     0.085419   
C        C      0.407878000000     0.950402000000     0.204154000000     0.080532   
C        C      0.174648000000     0.399795000000     0.623691000000    -0.127529   
C        C      0.825301000000     0.899862000000     0.376658000000    -0.127991   
C        C      0.824740000000     0.599819000000     0.375907000000    -0.126448   
C        C      0.175637000000     0.099500000000     0.624307000000    -0.122622   
C        C      0.470240000000     0.685184000000     0.321788000000     0.040382   
C        C      0.531620000000     0.185671000000     0.678361000000     0.039026   
C        C      0.530888000000     0.314785000000     0.678083000000     0.039885   
C        C      0.470207000000     0.814325000000     0.322001000000     0.042326   
C        C      0.602488000000     0.654461000000     0.097301000000     0.318589   
C        C      0.398712000000     0.154834000000     0.902394000000     0.316955   
C        C      0.397699000000     0.345555000000     0.901943000000     0.320801   
C        C      0.602881000000     0.845335000000     0.097992000000     0.320567   
C        C      0.393626000000     0.685756000000     0.400240000000     0.05011    
C        C      0.608208000000     0.186227000000     0.599894000000     0.053192   
C        C      0.607862000000     0.314235000000     0.599959000000     0.047546   
C        C      0.393428000000     0.813686000000     0.400301000000     0.046544   
C        C      0.332987000000     0.360661000000     0.488688000000     0.043326   
C        C      0.666838000000     0.860757000000     0.511430000000     0.038837   
C        C      0.665447000000     0.638220000000     0.510611000000     0.048777   
C        C      0.334359000000     0.138223000000     0.489208000000     0.052904   
F        F      0.625077000000     0.749956000000     0.755596000000    -0.407832   
F        F      0.379562000000     0.249954000000     0.244408000000    -0.408616   
F        F      0.662152000000     0.715207000000     0.609364000000    -0.366783   
F        F      0.342486000000     0.215195000000     0.390635000000    -0.364606   
F        F      0.338288000000     0.283124000000     0.390810000000    -0.370309   
F        F      0.666332000000     0.783115000000     0.609211000000    -0.371469   
F        F      0.499039000000     0.750103000000     0.599906000000    -0.399518   
F        F      0.505540000000     0.250107000000     0.400103000000    -0.399902   
H        H      0.653460000000     0.460375000000     0.144784000000    -0.038077   
H        H      0.347499000000     0.959474000000     0.852601000000    -0.041397   
H        H      0.347429000000     0.539516000000     0.854843000000    -0.036976   
H        H      0.652524000000     0.039081000000     0.143845000000    -0.037105   
H        H      0.802268000000     0.815054000000     0.320762000000     0.014578   
H        H      0.197827000000     0.315028000000     0.678124000000     0.012161   
H        H      0.199763000000     0.184683000000     0.678721000000     0.017209   
H        H      0.802523000000     0.684705000000     0.320866000000     0.017374   
H        H      0.918255000000     0.780246000000     0.334135000000     0.041945   
H        H      0.082109000000     0.280111000000     0.665479000000     0.043521   
H        H      0.083454000000     0.219372000000     0.664619000000     0.040746   
H        H      0.918504000000     0.719508000000     0.333842000000     0.042562   
H        H      0.848130000000     0.468322000000     0.125757000000     0.081236   
H        H      0.152837000000     0.967481000000     0.873511000000     0.080661   
H        H      0.152678000000     0.531619000000     0.873675000000     0.080945   
H        H      0.847147000000     0.031041000000     0.124917000000     0.083173   
H        H      0.682679000000     0.335441000000     0.102016000000     0.064659   
H        H      0.320420000000     0.834814000000     0.901441000000     0.065058   
H        H      0.318709000000     0.664413000000     0.898635000000     0.066154   
H        H      0.682452000000     0.164029000000     0.101842000000     0.066532   
H        H      0.880031000000     0.343763000000     0.088044000000     0.014473   
H        H      0.122751000000     0.843214000000     0.916676000000     0.013942   
H        H      0.121310000000     0.656147000000     0.912527000000     0.014811   
H        H      0.879801000000     0.155609000000     0.088025000000     0.014599   
H        H      0.199582000000     0.494682000000     0.549507000000     0.052046   
H        H      0.802498000000     0.994730000000     0.452129000000     0.053125   
H        H      0.803345000000     0.504808000000     0.450565000000     0.054484   
H        H      0.197152000000     0.004551000000     0.549172000000     0.05255    
H        H      0.167612000000     0.505284000000     0.729815000000    -0.016777   
H        H      0.834863000000     0.005515000000     0.271856000000    -0.019917   
H        H      0.835509000000     0.494393000000     0.270238000000    -0.019057   
H        H      0.165177000000     0.993985000000     0.729485000000    -0.010557   
H        H      0.558895000000     0.580656000000     0.259904000000    -0.084273   
H        H      0.442887000000     0.081234000000     0.740675000000    -0.082987   
H        H      0.442359000000     0.419397000000     0.739544000000    -0.089979   
H        H      0.559147000000     0.918919000000     0.259001000000    -0.087751   
H        H      0.152068000000     0.380580000000     0.777858000000     0.00611    
H        H      0.847357000000     0.880843000000     0.222171000000     0.006596   
H        H      0.846513000000     0.619160000000     0.221629000000     0.00572    
H        H      0.154017000000     0.118707000000     0.778755000000     0.006154   
H        H      0.155233000000     0.590662000000     0.127582000000    -0.013449   
H        H      0.846777000000     0.091059000000     0.872192000000    -0.013235   
H        H      0.845786000000     0.409097000000     0.872825000000    -0.01302    
H        H      0.154800000000     0.908805000000     0.130159000000    -0.009688   
H        H      0.263968000000     0.650923000000     0.178948000000     0.022314   
H        H      0.738093000000     0.151391000000     0.821103000000     0.022287   
H        H      0.736703000000     0.348905000000     0.821491000000     0.021585   
H        H      0.263903000000     0.848591000000     0.181214000000     0.023275   
H        H      0.447996000000     0.520438000000     0.211857000000    -0.021348   
H        H      0.553671000000     0.020983000000     0.788611000000    -0.018849   
H        H      0.553576000000     0.479540000000     0.787690000000    -0.021326   
H        H      0.447897000000     0.979092000000     0.211133000000    -0.019472   
H        H      0.168391000000     0.370031000000     0.592536000000     0.004331   
H        H      0.830778000000     0.870047000000     0.407456000000     0.003509   
H        H      0.829900000000     0.629606000000     0.406916000000     0.002338   
H        H      0.170346000000     0.129312000000     0.593473000000     0.002757   
H        H      0.323109000000     0.335142000000     0.291391000000     0.008934   
H        H      0.678492000000     0.834854000000     0.709434000000     0.006897   
H        H      0.677642000000     0.664427000000     0.707938000000     0.005739   
H        H      0.323223000000     0.164104000000     0.291978000000     0.004637   
H        H      0.218732000000     0.353074000000     0.188932000000     0.01212    
H        H      0.782805000000     0.853132000000     0.811516000000     0.01536    
H        H      0.782305000000     0.646589000000     0.810256000000     0.011213   
H        H      0.218479000000     0.146266000000     0.189661000000     0.01072    
H        H      0.065731000000     0.483750000000     0.254440000000    -0.08551    
H        H      0.935098000000     0.983264000000     0.746730000000    -0.085485   
H        H      0.936308000000     0.516175000000     0.745739000000    -0.086618   
H        H      0.064834000000     0.015813000000     0.254304000000    -0.084433   
H        H      0.168611000000     0.506576000000     0.347385000000    -0.045779   
H        H      0.832784000000     0.006404000000     0.653803000000    -0.045534   
H        H      0.834034000000     0.493133000000     0.652629000000    -0.046903   
H        H      0.166992000000     0.992808000000     0.347590000000    -0.046258   
H        H      0.052989000000     0.484180000000     0.389918000000    -0.071569   
H        H      0.948371000000     0.983943000000     0.611350000000    -0.073895   
H        H      0.949359000000     0.515821000000     0.610336000000    -0.07342    
H        H      0.051530000000     0.015484000000     0.389646000000    -0.071666   
H        H      0.454777000000     0.480276000000     0.060581000000     0.095081   
H        H      0.543530000000     0.980155000000     0.937505000000     0.097818   
H        H      0.546347000000     0.519462000000     0.939148000000     0.092975   
H        H      0.453106000000     0.019242000000     0.059629000000     0.094475   
H        H      0.371216000000     0.453282000000     0.960812000000     0.027724   
H        H      0.627845000000     0.953630000000     0.037768000000     0.030979   
H        H      0.629692000000     0.546447000000     0.039101000000     0.027002   
H        H      0.370708000000     0.046519000000     0.959710000000     0.02536    
H        H      0.518505000000     0.448932000000     0.977770000000    -0.103686   
H        H      0.480623000000     0.948883000000     0.021105000000    -0.102513   
H        H      0.482385000000     0.550752000000     0.021911000000    -0.104975   
H        H      0.518090000000     0.050520000000     0.977584000000    -0.104678   
H        H      0.512846000000     0.304954000000     0.234490000000     0.063177   
H        H      0.490770000000     0.804112000000     0.767402000000     0.064187   
H        H      0.488673000000     0.694922000000     0.766069000000     0.060441   
H        H      0.512897000000     0.194455000000     0.234235000000     0.06187    
H        H      0.516379000000     0.335326000000     0.345293000000     0.057676   
H        H      0.484578000000     0.834339000000     0.656013000000     0.059321   
H        H      0.484609000000     0.664645000000     0.655049000000     0.059943   
H        H      0.516173000000     0.164127000000     0.345070000000     0.061307   
H        H      0.628975000000     0.336190000000     0.274577000000    -0.06225    
H        H      0.373067000000     0.834705000000     0.728095000000    -0.062687   
H        H      0.372224000000     0.663816000000     0.726072000000    -0.062905   
H        H      0.628800000000     0.163122000000     0.274355000000    -0.062962   
H        H      0.519950000000     0.749743000000     0.439302000000    -0.07439    
H        H      0.481959000000     0.250166000000     0.560735000000    -0.074867   
H        H      0.656850000000     0.749770000000     0.410387000000    -0.17211    
H        H      0.344810000000     0.250065000000     0.589078000000    -0.172224   
H        H      0.629293000000     0.677012000000     0.046324000000    -0.112426   
H        H      0.371709000000     0.177364000000     0.953319000000    -0.111805   
H        H      0.370890000000     0.323015000000     0.952952000000    -0.113838   
H        H      0.629559000000     0.822846000000     0.046765000000    -0.114646   
H        H      0.532259000000     0.638734000000     0.052037000000    -0.159125   
H        H      0.468769000000     0.139069000000     0.947826000000    -0.159475   
H        H      0.467741000000     0.361351000000     0.947293000000    -0.158851   
H        H      0.532754000000     0.861163000000     0.052883000000    -0.160171   
H        H      0.669207000000     0.632747000000     0.116690000000    -0.029643   
H        H      0.331986000000     0.133142000000     0.882663000000    -0.027651   
H        H      0.330871000000     0.367213000000     0.882293000000    -0.030837   
H        H      0.669721000000     0.866993000000     0.117605000000    -0.028357   
H        H      0.323141000000     0.705625000000     0.375874000000     0.014909   
H        H      0.678316000000     0.206294000000     0.623856000000     0.014884   
H        H      0.678560000000     0.294500000000     0.624754000000     0.017125   
H        H      0.322798000000     0.793914000000     0.375579000000     0.016482   
H        H      0.434874000000     0.695449000000     0.478022000000     0.077381   
H        H      0.566755000000     0.195671000000     0.521952000000     0.076191   
H        H      0.567064000000     0.304388000000     0.522174000000     0.080361   
H        H      0.434450000000     0.803837000000     0.478010000000     0.080413   
H        H      0.360122000000     0.656173000000     0.406855000000    -0.059034   
H        H      0.642240000000     0.156695000000     0.593811000000    -0.060385   
H        H      0.641025000000     0.343860000000     0.593179000000    -0.061076   
H        H      0.360143000000     0.843284000000     0.407220000000    -0.059787   
H        H      0.408401000000     0.352999000000     0.457689000000    -0.047295   
H        H      0.591885000000     0.852947000000     0.543030000000    -0.047537   
H        H      0.590192000000     0.645685000000     0.542113000000    -0.049918   
H        H      0.409858000000     0.145665000000     0.458089000000    -0.050871   
H        H      0.288489000000     0.333062000000     0.495715000000     0.084096   
H        H      0.711236000000     0.833220000000     0.503381000000     0.085945   
H        H      0.708876000000     0.665950000000     0.502417000000     0.081074   
H        H      0.290629000000     0.165956000000     0.496622000000     0.078378   
H        H      0.357681000000     0.373008000000     0.567410000000    -0.035437   
H        H      0.641344000000     0.873338000000     0.433085000000    -0.037899   
H        H      0.640466000000     0.625525000000     0.432336000000    -0.041072   
H        H      0.358947000000     0.125741000000     0.567787000000    -0.039614   
H        H      0.907594000000     0.779770000000     0.138218000000     0.046183   
H        H      0.093519000000     0.279874000000     0.861465000000     0.043347   
H        H      0.093125000000     0.219997000000     0.860393000000     0.047933   
H        H      0.907329000000     0.719892000000     0.137867000000     0.045255   
H        H      0.793949000000     0.815257000000     0.125072000000     0.066496   
H        H      0.206896000000     0.315463000000     0.873873000000     0.068263   
H        H      0.207105000000     0.184623000000     0.874290000000     0.066642   
H        H      0.793667000000     0.684412000000     0.125114000000     0.066838   
Mn       Mn     0.194898000000     0.431608000000     0.109716000000     0.993865   
Mn       Mn     0.803497000000     0.931889000000     0.891218000000     0.983762   
Mn       Mn     0.806293000000     0.568224000000     0.890235000000     0.993487   
Mn       Mn     0.194285000000     0.067816000000     0.109469000000     0.994682   
Mn       Mn     0.000670000000     0.499958000000     0.999936000000     0.999235   
Mn       Mn     0.000814000000     0.999438000000     0.000197000000     1.00232    
N        N      0.204925000000     0.423740000000     0.270048000000    -0.331404   
N        N      0.795818000000     0.923513000000     0.730279000000    -0.337063   
N        N      0.796420000000     0.575972000000     0.729822000000    -0.331307   
N        N      0.204524000000     0.075612000000     0.270255000000    -0.331189   
N        N      0.376671000000     0.375518000000     0.188208000000     0.073103   
N        N      0.624368000000     0.875232000000     0.812269000000     0.071977   
N        N      0.624382000000     0.624248000000     0.811748000000     0.069955   
N        N      0.376336000000     0.123879000000     0.188233000000     0.071162   
N        N      0.348233000000     0.407554000000     0.124167000000    -0.392111   
N        N      0.651655000000     0.907605000000     0.875466000000    -0.391398   
N        N      0.652777000000     0.592183000000     0.875657000000    -0.390727   
N        N      0.347748000000     0.091891000000     0.124076000000    -0.392363   
N        N      0.260792000000     0.391136000000     0.314291000000     0.087214   
N        N      0.739743000000     0.890982000000     0.685942000000     0.086504   
N        N      0.739663000000     0.608367000000     0.685381000000     0.085644   
N        N      0.260984000000     0.108079000000     0.314615000000     0.087437   
N        N      0.604476000000     0.706915000000     0.234126000000    -0.111673   
N        N      0.397003000000     0.207304000000     0.765671000000    -0.112278   
N        N      0.396310000000     0.293054000000     0.765314000000    -0.111219   
N        N      0.604537000000     0.792698000000     0.234314000000    -0.111006   
N        N      0.544134000000     0.714543000000     0.312763000000    -0.111125   
N        N      0.457472000000     0.214968000000     0.687151000000    -0.109386   
N        N      0.456963000000     0.285415000000     0.686905000000    -0.110852   
N        N      0.544081000000     0.784978000000     0.312822000000    -0.112568   
O        O      0.190149000000     0.429714000000     0.954773000000    -0.50804    
O        O      0.808861000000     0.929808000000     0.046942000000    -0.509763   
O        O      0.810594000000     0.570081000000     0.045070000000    -0.508018   
O        O      0.189553000000     0.069906000000     0.954833000000    -0.506169   
O        O      0.036304000000     0.449455000000     0.089280000000    -0.39428    
O        O      0.966262000000     0.948382000000     0.912001000000    -0.406215   
O        O      0.964927000000     0.550457000000     0.910734000000    -0.393575   
O        O      0.035800000000     0.049888000000     0.088646000000    -0.395699   
O        O      0.266830000000     0.481993000000     0.137873000000    -0.592753   
O        O      0.733389000000     0.982523000000     0.862253000000    -0.595459   
O        O      0.734759000000     0.517850000000     0.862042000000    -0.592356   
O        O      0.266385000000     0.017407000000     0.137885000000    -0.59319    
O        O      0.071250000000     0.387142000000     0.101332000000    -0.463795   
O        O      0.934353000000     0.885307000000     0.902054000000    -0.462295   
O        O      0.929809000000     0.612758000000     0.898665000000    -0.463805   
O        O      0.070781000000     0.112134000000     0.101596000000    -0.46375    
O        O      0.076432000000     0.480038000000     0.887835000000    -0.436894   
O        O      0.924030000000     0.979993000000     0.111980000000    -0.438863   
O        O      0.925042000000     0.519919000000     0.111917000000    -0.438103   
O        O      0.077992000000     0.018897000000     0.888876000000    -0.433365   
O        O      0.129778000000     0.525106000000     0.072436000000    -0.496488   
O        O      0.872658000000     0.025090000000     0.925705000000    -0.49984    
O        O      0.871690000000     0.474739000000     0.927447000000    -0.496838   
O        O      0.128924000000     0.974142000000     0.074335000000    -0.495118   
Rh       Rh     0.729602000000     0.749842000000     0.218286000000     0.359939   
Rh       Rh     0.271417000000     0.250035000000     0.781073000000     0.359481   


