data_Autosave\of\DUT67_beladung1
_audit_creation_date              2018-05-02
_audit_creation_method            'Materials Studio'
_symmetry_space_group_name_H-M    'FM-3M'
_symmetry_Int_Tables_number       225
_symmetry_cell_setting            cubic
loop_
_symmetry_equiv_pos_as_xyz
  x,y,z
  -x,-y,z
  -x,y,-z
  x,-y,-z
  z,x,y
  z,-x,-y
  -z,-x,y
  -z,x,-y
  y,z,x
  -y,z,-x
  y,-z,-x
  -y,-z,x
  y,x,-z
  -y,-x,-z
  y,-x,z
  -y,x,z
  x,z,-y
  -x,z,y
  -x,-z,-y
  x,-z,y
  z,y,-x
  z,-y,x
  -z,y,x
  -z,-y,-x
  -x,-y,-z
  x,y,-z
  x,-y,z
  -x,y,z
  -z,-x,-y
  -z,x,y
  z,x,-y
  z,-x,y
  -y,-z,-x
  y,-z,x
  -y,z,x
  y,z,-x
  -y,-x,z
  y,x,z
  -y,x,-z
  y,-x,-z
  -x,-z,y
  x,-z,-y
  x,z,y
  -x,z,-y
  -z,-y,x
  -z,y,-x
  z,-y,-x
  z,y,x
  x,y+1/2,z+1/2
  -x,-y+1/2,z+1/2
  -x,y+1/2,-z+1/2
  x,-y+1/2,-z+1/2
  z,x+1/2,y+1/2
  z,-x+1/2,-y+1/2
  -z,-x+1/2,y+1/2
  -z,x+1/2,-y+1/2
  y,z+1/2,x+1/2
  -y,z+1/2,-x+1/2
  y,-z+1/2,-x+1/2
  -y,-z+1/2,x+1/2
  y,x+1/2,-z+1/2
  -y,-x+1/2,-z+1/2
  y,-x+1/2,z+1/2
  -y,x+1/2,z+1/2
  x,z+1/2,-y+1/2
  -x,z+1/2,y+1/2
  -x,-z+1/2,-y+1/2
  x,-z+1/2,y+1/2
  z,y+1/2,-x+1/2
  z,-y+1/2,x+1/2
  -z,y+1/2,x+1/2
  -z,-y+1/2,-x+1/2
  -x,-y+1/2,-z+1/2
  x,y+1/2,-z+1/2
  x,-y+1/2,z+1/2
  -x,y+1/2,z+1/2
  -z,-x+1/2,-y+1/2
  -z,x+1/2,y+1/2
  z,x+1/2,-y+1/2
  z,-x+1/2,y+1/2
  -y,-z+1/2,-x+1/2
  y,-z+1/2,x+1/2
  -y,z+1/2,x+1/2
  y,z+1/2,-x+1/2
  -y,-x+1/2,z+1/2
  y,x+1/2,z+1/2
  -y,x+1/2,-z+1/2
  y,-x+1/2,-z+1/2
  -x,-z+1/2,y+1/2
  x,-z+1/2,-y+1/2
  x,z+1/2,y+1/2
  -x,z+1/2,-y+1/2
  -z,-y+1/2,x+1/2
  -z,y+1/2,-x+1/2
  z,-y+1/2,-x+1/2
  z,y+1/2,x+1/2
  x+1/2,y,z+1/2
  -x+1/2,-y,z+1/2
  -x+1/2,y,-z+1/2
  x+1/2,-y,-z+1/2
  z+1/2,x,y+1/2
  z+1/2,-x,-y+1/2
  -z+1/2,-x,y+1/2
  -z+1/2,x,-y+1/2
  y+1/2,z,x+1/2
  -y+1/2,z,-x+1/2
  y+1/2,-z,-x+1/2
  -y+1/2,-z,x+1/2
  y+1/2,x,-z+1/2
  -y+1/2,-x,-z+1/2
  y+1/2,-x,z+1/2
  -y+1/2,x,z+1/2
  x+1/2,z,-y+1/2
  -x+1/2,z,y+1/2
  -x+1/2,-z,-y+1/2
  x+1/2,-z,y+1/2
  z+1/2,y,-x+1/2
  z+1/2,-y,x+1/2
  -z+1/2,y,x+1/2
  -z+1/2,-y,-x+1/2
  -x+1/2,-y,-z+1/2
  x+1/2,y,-z+1/2
  x+1/2,-y,z+1/2
  -x+1/2,y,z+1/2
  -z+1/2,-x,-y+1/2
  -z+1/2,x,y+1/2
  z+1/2,x,-y+1/2
  z+1/2,-x,y+1/2
  -y+1/2,-z,-x+1/2
  y+1/2,-z,x+1/2
  -y+1/2,z,x+1/2
  y+1/2,z,-x+1/2
  -y+1/2,-x,z+1/2
  y+1/2,x,z+1/2
  -y+1/2,x,-z+1/2
  y+1/2,-x,-z+1/2
  -x+1/2,-z,y+1/2
  x+1/2,-z,-y+1/2
  x+1/2,z,y+1/2
  -x+1/2,z,-y+1/2
  -z+1/2,-y,x+1/2
  -z+1/2,y,-x+1/2
  z+1/2,-y,-x+1/2
  z+1/2,y,x+1/2
  x+1/2,y+1/2,z
  -x+1/2,-y+1/2,z
  -x+1/2,y+1/2,-z
  x+1/2,-y+1/2,-z
  z+1/2,x+1/2,y
  z+1/2,-x+1/2,-y
  -z+1/2,-x+1/2,y
  -z+1/2,x+1/2,-y
  y+1/2,z+1/2,x
  -y+1/2,z+1/2,-x
  y+1/2,-z+1/2,-x
  -y+1/2,-z+1/2,x
  y+1/2,x+1/2,-z
  -y+1/2,-x+1/2,-z
  y+1/2,-x+1/2,z
  -y+1/2,x+1/2,z
  x+1/2,z+1/2,-y
  -x+1/2,z+1/2,y
  -x+1/2,-z+1/2,-y
  x+1/2,-z+1/2,y
  z+1/2,y+1/2,-x
  z+1/2,-y+1/2,x
  -z+1/2,y+1/2,x
  -z+1/2,-y+1/2,-x
  -x+1/2,-y+1/2,-z
  x+1/2,y+1/2,-z
  x+1/2,-y+1/2,z
  -x+1/2,y+1/2,z
  -z+1/2,-x+1/2,-y
  -z+1/2,x+1/2,y
  z+1/2,x+1/2,-y
  z+1/2,-x+1/2,y
  -y+1/2,-z+1/2,-x
  y+1/2,-z+1/2,x
  -y+1/2,z+1/2,x
  y+1/2,z+1/2,-x
  -y+1/2,-x+1/2,z
  y+1/2,x+1/2,z
  -y+1/2,x+1/2,-z
  y+1/2,-x+1/2,-z
  -x+1/2,-z+1/2,y
  x+1/2,-z+1/2,-y
  x+1/2,z+1/2,y
  -x+1/2,z+1/2,-y
  -z+1/2,-y+1/2,x
  -z+1/2,y+1/2,-x
  z+1/2,-y+1/2,-x
  z+1/2,y+1/2,x
_cell_length_a                    38.8761
_cell_length_b                    38.8761
_cell_length_c                    38.8761
_cell_angle_alpha                 90.0000
_cell_angle_beta                  90.0000
_cell_angle_gamma                 90.0000
loop_
_atom_site_label
_atom_site_type_symbol
_atom_site_fract_x
_atom_site_fract_y
_atom_site_fract_z
_atom_site_U_iso_or_equiv
_atom_site_adp_type
_atom_site_occupancy
C1     C     0.22603   0.12855   0.08404   0.05000  Uiso   1.00
C2     C     0.23357   0.15705   0.06083   0.05000  Uiso   1.00
O3     O     0.21179   0.16455   0.03640   0.05000  Uiso   1.00
O4     O     0.17414   0.26146   0.06714   0.05000  Uiso   1.00
C5     C     0.19785   0.10718   0.08211   0.05000  Uiso   1.00
H6     H     0.17761   0.10996   0.06346   0.05000  Uiso   1.00
H7     H     0.15093   0.51878   0.12410   0.05000  Uiso   0.75
H8     H     0.22330   0.33738   0.25013   0.05000  Uiso   0.75
O9     O    -0.78120   0.31678  -0.12102   0.05000  Uiso   0.62
H10    H    -0.79112   0.33866  -0.11271   0.05000  Uiso   0.62
H11    H    -0.78781   0.31569  -0.14554   0.05000  Uiso   0.62
O12    O     0.31194   0.27527  -0.27968   0.05000  Uiso   0.30
H13    H     0.33160   0.25924  -0.27818   0.05000  Uiso   0.30
H14    H     0.29340   0.26385  -0.26657   0.05000  Uiso   0.30
O15    O     0.14499   0.20237   0.19981   0.05000  Uiso   0.25
H16    H     0.15058   0.22717   0.19999   0.05000  Uiso   0.25
H17    H     0.16395   0.19146   0.21277   0.05000  Uiso   0.25
O18    O     0.33140   0.49313  -0.24714   0.05000  Uiso   0.55
H19    H     0.32482   0.49675  -0.27143   0.05000  Uiso   0.55
H20    H     0.35635   0.48835  -0.24794   0.05000  Uiso   0.55
O21    O     0.64510   0.12337   0.50851   0.05000  Uiso   0.37
H22    H     0.66550   0.13810   0.50488   0.05000  Uiso   0.37
H23    H     0.65428   0.10237   0.51952   0.05000  Uiso   0.37
C24    C     0.32867   0.50000   0.32867   0.05000  Uiso   1.00
C25    C     0.14433   0.50000   0.14433   0.05000  Uiso   1.00
C26    C     0.25000   0.61479   0.25000   0.05000  Uiso   1.00
C27    C     0.25000   0.65297   0.25000   0.05000  Uiso   1.00
H28    H     0.17181   0.50000   0.23651   0.05000  Uiso   0.50
H29    H     0.28159   0.56475   0.21841   0.05000  Uiso   0.50
Zr30   Zr    0.21931   0.28069   0.04459   0.05000  Uiso   1.00
O31    O     0.18204   0.31796   0.02953   0.05000  Uiso   1.00
O32    O     0.22909   0.27091   0.09962   0.05000  Uiso   1.00
Zr33   Zr    0.20673   0.20673   0.00000   0.05000  Uiso   1.00
S34    S     0.25291   0.11736   0.11736   0.05000  Uiso   1.00
O35    O     0.22848   0.22848   0.04396   0.05000  Uiso   1.00
O36    O     0.24060   0.30326   0.00000   0.05000  Uiso   1.00
Kr1    Kr    0.25000   0.75000   0.75000   0.05000  Uiso   1.00  
Xe2    Xe    0.50000    0.5000   0.00000   0.05000  Uiso   1.00 
Rn3    Rn    0.500000   0.5000   0.50000   0.05000  Uiso  1.00
loop_
_geom_bond_atom_site_label_1
_geom_bond_atom_site_label_2
_geom_bond_distance
_geom_bond_site_symmetry_2
_ccdc_geom_bond_type
C1     S34     1.720   .     S
C1     C5      1.377   .     D
C1     C2      1.459   .     S
C2     O3      1.305   .     A
C2     O4      1.295   38    A
O3     Zr33    2.175   .     S
O4     Zr30    2.100   .     S
O4     C2      1.295   38    A
C5     H6      1.076   .     S
C5     C5      1.378   43    S
H7     C25     1.104   .     S
H8     C27     1.104   22_565 S
O9     H10     0.988   .     S
O9     H11     0.988   .     S
O12    H13     0.988   .     S
O12    H14     0.988   .     S
O15    H16     0.988   .     S
O15    H17     0.988   .     S
O18    H19     0.988   .     S
O18    H20     0.988   .     S
O21    H22     0.988   .     S
O21    H23     0.988   .     S
C24    O31     1.291   84    A
C24    O31     1.291   59    A
C24    C25     1.484   99    S
C25    C24     1.484   99    S
C25    H7      1.104   48    S
C25    H7      1.104   27_565 S
C25    H7      1.104   22_565 S
C26    O32     1.292   65    A
C26    O32     1.292   84    A
C26    C27     1.485   .     S
C27    H8      1.104   121_565 S
C27    H8      1.104   120_565 S
C27    H8      1.104   27_565 S
C27    H8      1.104   22_565 S
H28    O36     0.982   156   S
H29    O35     0.980   162   S
Zr30   O4      2.100   181   S
Zr30   O35     2.061   .     S
Zr30   O35     2.061   146   S
Zr30   O36     2.112   .     S
Zr30   O36     2.112   158   S
Zr30   O31     2.131   .     S
Zr30   O32     2.206   .     S
O31    C24     1.291   104   A
O32    C26     1.292   68_554 A
Zr33   O3      2.175   13    S
Zr33   O3      2.175   26    S
Zr33   O3      2.175   38    S
Zr33   O35     2.086   .     S
Zr33   O35     2.086   13    S
Zr33   O36     2.084   158   S
Zr33   O36     2.084   146   S
S34    C1      1.720   43    S
O35    Zr30    2.061   38    S
O35    H29     0.980   80_554 S
O36    Zr30    2.112   26    S
O36    H28     0.982   54    S
O36    Zr33    2.084   146   S
