data_DUT67_beladung3\(2)
_audit_creation_date              2018-05-11
_audit_creation_method            'Materials Studio'
_symmetry_space_group_name_H-M    'FM-3M'
_symmetry_Int_Tables_number       225
_symmetry_cell_setting            cubic
loop_
_symmetry_equiv_pos_as_xyz
  x,y,z
  -x,-y,z
  -x,y,-z
  x,-y,-z
  z,x,y
  z,-x,-y
  -z,-x,y
  -z,x,-y
  y,z,x
  -y,z,-x
  y,-z,-x
  -y,-z,x
  y,x,-z
  -y,-x,-z
  y,-x,z
  -y,x,z
  x,z,-y
  -x,z,y
  -x,-z,-y
  x,-z,y
  z,y,-x
  z,-y,x
  -z,y,x
  -z,-y,-x
  -x,-y,-z
  x,y,-z
  x,-y,z
  -x,y,z
  -z,-x,-y
  -z,x,y
  z,x,-y
  z,-x,y
  -y,-z,-x
  y,-z,x
  -y,z,x
  y,z,-x
  -y,-x,z
  y,x,z
  -y,x,-z
  y,-x,-z
  -x,-z,y
  x,-z,-y
  x,z,y
  -x,z,-y
  -z,-y,x
  -z,y,-x
  z,-y,-x
  z,y,x
  x,y+1/2,z+1/2
  -x,-y+1/2,z+1/2
  -x,y+1/2,-z+1/2
  x,-y+1/2,-z+1/2
  z,x+1/2,y+1/2
  z,-x+1/2,-y+1/2
  -z,-x+1/2,y+1/2
  -z,x+1/2,-y+1/2
  y,z+1/2,x+1/2
  -y,z+1/2,-x+1/2
  y,-z+1/2,-x+1/2
  -y,-z+1/2,x+1/2
  y,x+1/2,-z+1/2
  -y,-x+1/2,-z+1/2
  y,-x+1/2,z+1/2
  -y,x+1/2,z+1/2
  x,z+1/2,-y+1/2
  -x,z+1/2,y+1/2
  -x,-z+1/2,-y+1/2
  x,-z+1/2,y+1/2
  z,y+1/2,-x+1/2
  z,-y+1/2,x+1/2
  -z,y+1/2,x+1/2
  -z,-y+1/2,-x+1/2
  -x,-y+1/2,-z+1/2
  x,y+1/2,-z+1/2
  x,-y+1/2,z+1/2
  -x,y+1/2,z+1/2
  -z,-x+1/2,-y+1/2
  -z,x+1/2,y+1/2
  z,x+1/2,-y+1/2
  z,-x+1/2,y+1/2
  -y,-z+1/2,-x+1/2
  y,-z+1/2,x+1/2
  -y,z+1/2,x+1/2
  y,z+1/2,-x+1/2
  -y,-x+1/2,z+1/2
  y,x+1/2,z+1/2
  -y,x+1/2,-z+1/2
  y,-x+1/2,-z+1/2
  -x,-z+1/2,y+1/2
  x,-z+1/2,-y+1/2
  x,z+1/2,y+1/2
  -x,z+1/2,-y+1/2
  -z,-y+1/2,x+1/2
  -z,y+1/2,-x+1/2
  z,-y+1/2,-x+1/2
  z,y+1/2,x+1/2
  x+1/2,y,z+1/2
  -x+1/2,-y,z+1/2
  -x+1/2,y,-z+1/2
  x+1/2,-y,-z+1/2
  z+1/2,x,y+1/2
  z+1/2,-x,-y+1/2
  -z+1/2,-x,y+1/2
  -z+1/2,x,-y+1/2
  y+1/2,z,x+1/2
  -y+1/2,z,-x+1/2
  y+1/2,-z,-x+1/2
  -y+1/2,-z,x+1/2
  y+1/2,x,-z+1/2
  -y+1/2,-x,-z+1/2
  y+1/2,-x,z+1/2
  -y+1/2,x,z+1/2
  x+1/2,z,-y+1/2
  -x+1/2,z,y+1/2
  -x+1/2,-z,-y+1/2
  x+1/2,-z,y+1/2
  z+1/2,y,-x+1/2
  z+1/2,-y,x+1/2
  -z+1/2,y,x+1/2
  -z+1/2,-y,-x+1/2
  -x+1/2,-y,-z+1/2
  x+1/2,y,-z+1/2
  x+1/2,-y,z+1/2
  -x+1/2,y,z+1/2
  -z+1/2,-x,-y+1/2
  -z+1/2,x,y+1/2
  z+1/2,x,-y+1/2
  z+1/2,-x,y+1/2
  -y+1/2,-z,-x+1/2
  y+1/2,-z,x+1/2
  -y+1/2,z,x+1/2
  y+1/2,z,-x+1/2
  -y+1/2,-x,z+1/2
  y+1/2,x,z+1/2
  -y+1/2,x,-z+1/2
  y+1/2,-x,-z+1/2
  -x+1/2,-z,y+1/2
  x+1/2,-z,-y+1/2
  x+1/2,z,y+1/2
  -x+1/2,z,-y+1/2
  -z+1/2,-y,x+1/2
  -z+1/2,y,-x+1/2
  z+1/2,-y,-x+1/2
  z+1/2,y,x+1/2
  x+1/2,y+1/2,z
  -x+1/2,-y+1/2,z
  -x+1/2,y+1/2,-z
  x+1/2,-y+1/2,-z
  z+1/2,x+1/2,y
  z+1/2,-x+1/2,-y
  -z+1/2,-x+1/2,y
  -z+1/2,x+1/2,-y
  y+1/2,z+1/2,x
  -y+1/2,z+1/2,-x
  y+1/2,-z+1/2,-x
  -y+1/2,-z+1/2,x
  y+1/2,x+1/2,-z
  -y+1/2,-x+1/2,-z
  y+1/2,-x+1/2,z
  -y+1/2,x+1/2,z
  x+1/2,z+1/2,-y
  -x+1/2,z+1/2,y
  -x+1/2,-z+1/2,-y
  x+1/2,-z+1/2,y
  z+1/2,y+1/2,-x
  z+1/2,-y+1/2,x
  -z+1/2,y+1/2,x
  -z+1/2,-y+1/2,-x
  -x+1/2,-y+1/2,-z
  x+1/2,y+1/2,-z
  x+1/2,-y+1/2,z
  -x+1/2,y+1/2,z
  -z+1/2,-x+1/2,-y
  -z+1/2,x+1/2,y
  z+1/2,x+1/2,-y
  z+1/2,-x+1/2,y
  -y+1/2,-z+1/2,-x
  y+1/2,-z+1/2,x
  -y+1/2,z+1/2,x
  y+1/2,z+1/2,-x
  -y+1/2,-x+1/2,z
  y+1/2,x+1/2,z
  -y+1/2,x+1/2,-z
  y+1/2,-x+1/2,-z
  -x+1/2,-z+1/2,y
  x+1/2,-z+1/2,-y
  x+1/2,z+1/2,y
  -x+1/2,z+1/2,-y
  -z+1/2,-y+1/2,x
  -z+1/2,y+1/2,-x
  z+1/2,-y+1/2,-x
  z+1/2,y+1/2,x
_cell_length_a                    38.8181
_cell_length_b                    38.8181
_cell_length_c                    38.8181
_cell_angle_alpha                 90.0000
_cell_angle_beta                  90.0000
_cell_angle_gamma                 90.0000
loop_
_atom_site_label
_atom_site_type_symbol
_atom_site_fract_x
_atom_site_fract_y
_atom_site_fract_z
_atom_site_U_iso_or_equiv
_atom_site_adp_type
_atom_site_occupancy
C1     C     0.22603   0.12855   0.08404   0.05000  Uiso   1.00
C2     C     0.23357   0.15705   0.06083   0.05000  Uiso   1.00
O3     O     0.21179   0.16455   0.03640   0.05000  Uiso   1.00
O4     O     0.17414   0.26146   0.06714   0.05000  Uiso   1.00
C5     C     0.19785   0.10718   0.08211   0.05000  Uiso   1.00
H6     H     0.17761   0.10996   0.06346   0.05000  Uiso   1.00
H7     H     0.15093   0.51878   0.12410   0.05000  Uiso   0.75
H8     H     0.22330   0.33738   0.25013   0.05000  Uiso   0.75
O9     O    -0.58357   0.37853   0.07053   0.05000  Uiso   0.22
H10    H    -0.58455   0.41240   0.06741   0.05000  Uiso   0.22
H11    H    -0.57648   0.37455   0.09462   0.05000  Uiso   0.22
O12    O     0.31343   0.21150  -0.38372   0.05000  Uiso   0.65
H13    H     0.31255   0.25880  -0.40780   0.05000  Uiso   0.65
H14    H     0.30947   0.21678  -0.35917   0.05000  Uiso   0.65
O15    O     0.03486   0.13603   0.13602   0.05000  Uiso   0.34
H16    H     0.03958   0.15370   0.15367   0.05000  Uiso   0.34
H17    H     0.05786   0.12833   0.12839   0.05000  Uiso   0.34
O18    O     0.01933   0.65442  -0.27575   0.05000  Uiso   0.45
H19    H     0.02541   0.63295  -0.28793   0.05000  Uiso   0.45
H20    H    -0.00082   0.66342  -0.28837   0.05000  Uiso   0.45
O21    O     0.50871   0.03553   0.61721   0.05000  Uiso   0.32
H22    H     0.50289   0.03358   0.64189   0.05000  Uiso   0.32
H23    H     0.51143   0.06049   0.61326   0.05000  Uiso   0.32
O24    O     0.63408   0.81525   0.59223   0.05000  Uiso   0.35
H25    H     0.61177   0.82176   0.58191   0.05000  Uiso   0.35
H26    H     0.64854   0.80855   0.57243   0.05000  Uiso   0.35
O27    O     0.25956   0.66896   0.29692   0.05000  Uiso   0.55
H28    H     0.24040   0.65318   0.30241   0.05000  Uiso   0.55
H29    H     0.26956   0.67494   0.31951   0.05000  Uiso   0.55
O30    O     0.46621   1.03753   0.55324   0.05000  Uiso   0.28
H31    H     0.44386   1.03123   0.56358   0.05000  Uiso   0.28
H32    H     0.46908   1.06217   0.55879   0.05000  Uiso   0.28
O33    O     0.25413   0.57736   0.48229   0.05000  Uiso   0.71
H34    H     0.25337   0.60142   0.47410   0.05000  Uiso   0.71
H35    H     0.22980   0.57001   0.48273   0.05000  Uiso   0.71
C36    C     0.32867   0.50000   0.32867   0.05000  Uiso   1.00
C37    C     0.14433   0.50000   0.14433   0.05000  Uiso   1.00
C38    C     0.25000   0.61479   0.25000   0.05000  Uiso   1.00
C39    C     0.25000   0.65297   0.25000   0.05000  Uiso   1.00
H40    H     0.17181   0.50000   0.23651   0.05000  Uiso   0.50
H41    H     0.28159   0.56475   0.21841   0.05000  Uiso   0.50
Zr42   Zr    0.21931   0.28069   0.04459   0.05000  Uiso   1.00
O43    O     0.18204   0.31796   0.02953   0.05000  Uiso   1.00
O44    O     0.22909   0.27091   0.09962   0.05000  Uiso   1.00
Zr45   Zr    0.20673   0.20673   0.00000   0.05000  Uiso   1.00
S46    S     0.25291   0.11736   0.11736   0.05000  Uiso   1.00
O47    O     0.22848   0.22848   0.04396   0.05000  Uiso   1.00
O48    O     0.24060   0.30326   0.00000   0.05000  Uiso   1.00
Kr1    Kr    0.25000   0.75000   0.75000   0.05000  Uiso   1.00  
Xe2    Xe    0.50000    0.5000   0.00000   0.05000  Uiso   1.00 
Rn3    Rn    0.500000   0.5000   0.50000   0.05000  Uiso  1.00
loop_
_geom_bond_atom_site_label_1
_geom_bond_atom_site_label_2
_geom_bond_distance
_geom_bond_site_symmetry_2
_ccdc_geom_bond_type
C1     S46     1.718   .     S
C1     C5      1.375   .     D
C1     C2      1.456   .     S
C2     O3      1.303   .     A
C2     O4      1.293   38    A
O3     Zr45    2.172   .     S
O4     Zr42    2.097   .     S
O4     C2      1.293   38    A
C5     H6      1.074   .     S
C5     C5      1.376   43    S
H7     C37     1.102   .     S
H8     C39     1.102   22_565 S
O9     H10     1.321   .     S
O9     H11     0.987   .     S
O12    H13     2.061   .     S
O12    H14     0.987   .     S
O15    H16     0.987   .     S
O15    H17     0.987   .     S
O18    H19     0.987   .     S
O18    H20     0.987   .     S
O21    H22     0.987   .     S
O21    H23     0.987   .     S
O24    H25     0.987   .     S
O24    H26     0.987   .     S
O27    H28     0.987   .     S
O27    H29     0.987   .     S
O30    H31     0.987   .     S
O30    H32     0.987   .     S
O33    H34     0.987   .     S
O33    H35     0.987   .     S
C36    O43     1.289   84    A
C36    O43     1.289   59    A
C36    C37     1.482   99    S
C37    C36     1.482   99    S
C37    H7      1.102   48    S
C37    H7      1.102   27_565 S
C37    H7      1.102   22_565 S
C38    O44     1.290   65    A
C38    O44     1.290   84    A
C38    C39     1.482   .     S
C39    H8      1.102   121_565 S
C39    H8      1.102   120_565 S
C39    H8      1.102   27_565 S
C39    H8      1.102   22_565 S
H40    O48     0.981   156   S
H41    O47     0.978   162   S
Zr42   O4      2.097   181   S
Zr42   O47     2.058   .     S
Zr42   O47     2.058   146   S
Zr42   O48     2.109   .     S
Zr42   O48     2.109   158   S
Zr42   O43     2.127   .     S
Zr42   O44     2.203   .     S
O43    C36     1.289   104   A
O44    C38     1.290   68_554 A
Zr45   O3      2.172   13    S
Zr45   O3      2.172   26    S
Zr45   O3      2.172   38    S
Zr45   O47     2.083   .     S
Zr45   O47     2.083   13    S
Zr45   O48     2.081   158   S
Zr45   O48     2.081   146   S
S46    C1      1.718   43    S
O47    Zr42    2.058   38    S
O47    H41     0.978   80_554 S
O48    Zr42    2.109   26    S
O48    H40     0.981   54    S
O48    Zr45    2.081   146   S
