data_DUT67_model
_audit_creation_date              2018-04-30
_audit_creation_method            'Materials Studio'
_symmetry_space_group_name_H-M    'FM-3M'
_symmetry_Int_Tables_number       225
_symmetry_cell_setting            cubic
loop_
_symmetry_equiv_pos_as_xyz
  x,y,z
  -x,-y,z
  -x,y,-z
  x,-y,-z
  z,x,y
  z,-x,-y
  -z,-x,y
  -z,x,-y
  y,z,x
  -y,z,-x
  y,-z,-x
  -y,-z,x
  y,x,-z
  -y,-x,-z
  y,-x,z
  -y,x,z
  x,z,-y
  -x,z,y
  -x,-z,-y
  x,-z,y
  z,y,-x
  z,-y,x
  -z,y,x
  -z,-y,-x
  -x,-y,-z
  x,y,-z
  x,-y,z
  -x,y,z
  -z,-x,-y
  -z,x,y
  z,x,-y
  z,-x,y
  -y,-z,-x
  y,-z,x
  -y,z,x
  y,z,-x
  -y,-x,z
  y,x,z
  -y,x,-z
  y,-x,-z
  -x,-z,y
  x,-z,-y
  x,z,y
  -x,z,-y
  -z,-y,x
  -z,y,-x
  z,-y,-x
  z,y,x
  x,y+1/2,z+1/2
  -x,-y+1/2,z+1/2
  -x,y+1/2,-z+1/2
  x,-y+1/2,-z+1/2
  z,x+1/2,y+1/2
  z,-x+1/2,-y+1/2
  -z,-x+1/2,y+1/2
  -z,x+1/2,-y+1/2
  y,z+1/2,x+1/2
  -y,z+1/2,-x+1/2
  y,-z+1/2,-x+1/2
  -y,-z+1/2,x+1/2
  y,x+1/2,-z+1/2
  -y,-x+1/2,-z+1/2
  y,-x+1/2,z+1/2
  -y,x+1/2,z+1/2
  x,z+1/2,-y+1/2
  -x,z+1/2,y+1/2
  -x,-z+1/2,-y+1/2
  x,-z+1/2,y+1/2
  z,y+1/2,-x+1/2
  z,-y+1/2,x+1/2
  -z,y+1/2,x+1/2
  -z,-y+1/2,-x+1/2
  -x,-y+1/2,-z+1/2
  x,y+1/2,-z+1/2
  x,-y+1/2,z+1/2
  -x,y+1/2,z+1/2
  -z,-x+1/2,-y+1/2
  -z,x+1/2,y+1/2
  z,x+1/2,-y+1/2
  z,-x+1/2,y+1/2
  -y,-z+1/2,-x+1/2
  y,-z+1/2,x+1/2
  -y,z+1/2,x+1/2
  y,z+1/2,-x+1/2
  -y,-x+1/2,z+1/2
  y,x+1/2,z+1/2
  -y,x+1/2,-z+1/2
  y,-x+1/2,-z+1/2
  -x,-z+1/2,y+1/2
  x,-z+1/2,-y+1/2
  x,z+1/2,y+1/2
  -x,z+1/2,-y+1/2
  -z,-y+1/2,x+1/2
  -z,y+1/2,-x+1/2
  z,-y+1/2,-x+1/2
  z,y+1/2,x+1/2
  x+1/2,y,z+1/2
  -x+1/2,-y,z+1/2
  -x+1/2,y,-z+1/2
  x+1/2,-y,-z+1/2
  z+1/2,x,y+1/2
  z+1/2,-x,-y+1/2
  -z+1/2,-x,y+1/2
  -z+1/2,x,-y+1/2
  y+1/2,z,x+1/2
  -y+1/2,z,-x+1/2
  y+1/2,-z,-x+1/2
  -y+1/2,-z,x+1/2
  y+1/2,x,-z+1/2
  -y+1/2,-x,-z+1/2
  y+1/2,-x,z+1/2
  -y+1/2,x,z+1/2
  x+1/2,z,-y+1/2
  -x+1/2,z,y+1/2
  -x+1/2,-z,-y+1/2
  x+1/2,-z,y+1/2
  z+1/2,y,-x+1/2
  z+1/2,-y,x+1/2
  -z+1/2,y,x+1/2
  -z+1/2,-y,-x+1/2
  -x+1/2,-y,-z+1/2
  x+1/2,y,-z+1/2
  x+1/2,-y,z+1/2
  -x+1/2,y,z+1/2
  -z+1/2,-x,-y+1/2
  -z+1/2,x,y+1/2
  z+1/2,x,-y+1/2
  z+1/2,-x,y+1/2
  -y+1/2,-z,-x+1/2
  y+1/2,-z,x+1/2
  -y+1/2,z,x+1/2
  y+1/2,z,-x+1/2
  -y+1/2,-x,z+1/2
  y+1/2,x,z+1/2
  -y+1/2,x,-z+1/2
  y+1/2,-x,-z+1/2
  -x+1/2,-z,y+1/2
  x+1/2,-z,-y+1/2
  x+1/2,z,y+1/2
  -x+1/2,z,-y+1/2
  -z+1/2,-y,x+1/2
  -z+1/2,y,-x+1/2
  z+1/2,-y,-x+1/2
  z+1/2,y,x+1/2
  x+1/2,y+1/2,z
  -x+1/2,-y+1/2,z
  -x+1/2,y+1/2,-z
  x+1/2,-y+1/2,-z
  z+1/2,x+1/2,y
  z+1/2,-x+1/2,-y
  -z+1/2,-x+1/2,y
  -z+1/2,x+1/2,-y
  y+1/2,z+1/2,x
  -y+1/2,z+1/2,-x
  y+1/2,-z+1/2,-x
  -y+1/2,-z+1/2,x
  y+1/2,x+1/2,-z
  -y+1/2,-x+1/2,-z
  y+1/2,-x+1/2,z
  -y+1/2,x+1/2,z
  x+1/2,z+1/2,-y
  -x+1/2,z+1/2,y
  -x+1/2,-z+1/2,-y
  x+1/2,-z+1/2,y
  z+1/2,y+1/2,-x
  z+1/2,-y+1/2,x
  -z+1/2,y+1/2,x
  -z+1/2,-y+1/2,-x
  -x+1/2,-y+1/2,-z
  x+1/2,y+1/2,-z
  x+1/2,-y+1/2,z
  -x+1/2,y+1/2,z
  -z+1/2,-x+1/2,-y
  -z+1/2,x+1/2,y
  z+1/2,x+1/2,-y
  z+1/2,-x+1/2,y
  -y+1/2,-z+1/2,-x
  y+1/2,-z+1/2,x
  -y+1/2,z+1/2,x
  y+1/2,z+1/2,-x
  -y+1/2,-x+1/2,z
  y+1/2,x+1/2,z
  -y+1/2,x+1/2,-z
  y+1/2,-x+1/2,-z
  -x+1/2,-z+1/2,y
  x+1/2,-z+1/2,-y
  x+1/2,z+1/2,y
  -x+1/2,z+1/2,-y
  -z+1/2,-y+1/2,x
  -z+1/2,y+1/2,-x
  z+1/2,-y+1/2,-x
  z+1/2,y+1/2,x
_cell_length_a                    38.9952
_cell_length_b                    38.9952
_cell_length_c                    38.9952
_cell_angle_alpha                 90.0000
_cell_angle_beta                  90.0000
_cell_angle_gamma                 90.0000
loop_
_atom_site_label
_atom_site_type_symbol
_atom_site_fract_x
_atom_site_fract_y
_atom_site_fract_z
_atom_site_U_iso_or_equiv
_atom_site_adp_type
_atom_site_occupancy
C2     C     0.22603   0.12855   0.08404   0.05000  Uiso   1.00
C1     C     0.23357   0.15705   0.06083   0.05000  Uiso   1.00
O4     O     0.21179   0.16455   0.03640   0.05000  Uiso   1.00
O3     O     0.17414   0.26146   0.06714   0.05000  Uiso   1.00
C3     C     0.19785   0.10718   0.08211   0.05000  Uiso   1.00
H3     H     0.17761   0.10996   0.06346   0.05000  Uiso   1.00
H5     H     0.15093   0.51878   0.12410   0.05000  Uiso   0.75
H7     H     0.22330   0.33738   0.25013   0.05000  Uiso   0.75
C4     C     0.32867   0.50000   0.32867   0.05000  Uiso   1.00
C5     C     0.14433   0.50000   0.14433   0.05000  Uiso   1.00
C6     C     0.25000   0.61479   0.25000   0.05000  Uiso   1.00
C7     C     0.25000   0.65297   0.25000   0.05000  Uiso   1.00
H1     H     0.17181   0.50000   0.23651   0.05000  Uiso   0.50
H2     H     0.28159   0.56475   0.21841   0.05000  Uiso   0.50
Zr2    Zr    0.21931   0.28069   0.04459   0.05000  Uiso   1.00
O5     O     0.18204   0.31796   0.02953   0.05000  Uiso   1.00
O6     O     0.22909   0.27091   0.09962   0.05000  Uiso   1.00
Zr1    Zr    0.20673   0.20673   0.00000   0.05000  Uiso   1.00
S1     S     0.25291   0.11736   0.11736   0.05000  Uiso   1.00
O2     O     0.22848   0.22848   0.04396   0.05000  Uiso   1.00
O1     O     0.24060   0.30326   0.00000   0.05000  Uiso   1.00
Kr1    Kr    0.25000   0.75000   0.75000   0.05000  Uiso   1.00  
Xe2    Xe    0.50000    0.5000   0.00000   0.05000  Uiso   1.00 
Rn3    Rn    0.500000   0.5000   0.50000   0.05000  Uiso  1.00
