data_DUT67_aktiviert
_audit_creation_date              2018-05-11
_audit_creation_method            'Materials Studio'
_symmetry_space_group_name_H-M    'FM-3M'
_symmetry_Int_Tables_number       225
_symmetry_cell_setting            cubic
loop_
_symmetry_equiv_pos_as_xyz
  x,y,z
  -x,-y,z
  -x,y,-z
  x,-y,-z
  z,x,y
  z,-x,-y
  -z,-x,y
  -z,x,-y
  y,z,x
  -y,z,-x
  y,-z,-x
  -y,-z,x
  y,x,-z
  -y,-x,-z
  y,-x,z
  -y,x,z
  x,z,-y
  -x,z,y
  -x,-z,-y
  x,-z,y
  z,y,-x
  z,-y,x
  -z,y,x
  -z,-y,-x
  -x,-y,-z
  x,y,-z
  x,-y,z
  -x,y,z
  -z,-x,-y
  -z,x,y
  z,x,-y
  z,-x,y
  -y,-z,-x
  y,-z,x
  -y,z,x
  y,z,-x
  -y,-x,z
  y,x,z
  -y,x,-z
  y,-x,-z
  -x,-z,y
  x,-z,-y
  x,z,y
  -x,z,-y
  -z,-y,x
  -z,y,-x
  z,-y,-x
  z,y,x
  x,y+1/2,z+1/2
  -x,-y+1/2,z+1/2
  -x,y+1/2,-z+1/2
  x,-y+1/2,-z+1/2
  z,x+1/2,y+1/2
  z,-x+1/2,-y+1/2
  -z,-x+1/2,y+1/2
  -z,x+1/2,-y+1/2
  y,z+1/2,x+1/2
  -y,z+1/2,-x+1/2
  y,-z+1/2,-x+1/2
  -y,-z+1/2,x+1/2
  y,x+1/2,-z+1/2
  -y,-x+1/2,-z+1/2
  y,-x+1/2,z+1/2
  -y,x+1/2,z+1/2
  x,z+1/2,-y+1/2
  -x,z+1/2,y+1/2
  -x,-z+1/2,-y+1/2
  x,-z+1/2,y+1/2
  z,y+1/2,-x+1/2
  z,-y+1/2,x+1/2
  -z,y+1/2,x+1/2
  -z,-y+1/2,-x+1/2
  -x,-y+1/2,-z+1/2
  x,y+1/2,-z+1/2
  x,-y+1/2,z+1/2
  -x,y+1/2,z+1/2
  -z,-x+1/2,-y+1/2
  -z,x+1/2,y+1/2
  z,x+1/2,-y+1/2
  z,-x+1/2,y+1/2
  -y,-z+1/2,-x+1/2
  y,-z+1/2,x+1/2
  -y,z+1/2,x+1/2
  y,z+1/2,-x+1/2
  -y,-x+1/2,z+1/2
  y,x+1/2,z+1/2
  -y,x+1/2,-z+1/2
  y,-x+1/2,-z+1/2
  -x,-z+1/2,y+1/2
  x,-z+1/2,-y+1/2
  x,z+1/2,y+1/2
  -x,z+1/2,-y+1/2
  -z,-y+1/2,x+1/2
  -z,y+1/2,-x+1/2
  z,-y+1/2,-x+1/2
  z,y+1/2,x+1/2
  x+1/2,y,z+1/2
  -x+1/2,-y,z+1/2
  -x+1/2,y,-z+1/2
  x+1/2,-y,-z+1/2
  z+1/2,x,y+1/2
  z+1/2,-x,-y+1/2
  -z+1/2,-x,y+1/2
  -z+1/2,x,-y+1/2
  y+1/2,z,x+1/2
  -y+1/2,z,-x+1/2
  y+1/2,-z,-x+1/2
  -y+1/2,-z,x+1/2
  y+1/2,x,-z+1/2
  -y+1/2,-x,-z+1/2
  y+1/2,-x,z+1/2
  -y+1/2,x,z+1/2
  x+1/2,z,-y+1/2
  -x+1/2,z,y+1/2
  -x+1/2,-z,-y+1/2
  x+1/2,-z,y+1/2
  z+1/2,y,-x+1/2
  z+1/2,-y,x+1/2
  -z+1/2,y,x+1/2
  -z+1/2,-y,-x+1/2
  -x+1/2,-y,-z+1/2
  x+1/2,y,-z+1/2
  x+1/2,-y,z+1/2
  -x+1/2,y,z+1/2
  -z+1/2,-x,-y+1/2
  -z+1/2,x,y+1/2
  z+1/2,x,-y+1/2
  z+1/2,-x,y+1/2
  -y+1/2,-z,-x+1/2
  y+1/2,-z,x+1/2
  -y+1/2,z,x+1/2
  y+1/2,z,-x+1/2
  -y+1/2,-x,z+1/2
  y+1/2,x,z+1/2
  -y+1/2,x,-z+1/2
  y+1/2,-x,-z+1/2
  -x+1/2,-z,y+1/2
  x+1/2,-z,-y+1/2
  x+1/2,z,y+1/2
  -x+1/2,z,-y+1/2
  -z+1/2,-y,x+1/2
  -z+1/2,y,-x+1/2
  z+1/2,-y,-x+1/2
  z+1/2,y,x+1/2
  x+1/2,y+1/2,z
  -x+1/2,-y+1/2,z
  -x+1/2,y+1/2,-z
  x+1/2,-y+1/2,-z
  z+1/2,x+1/2,y
  z+1/2,-x+1/2,-y
  -z+1/2,-x+1/2,y
  -z+1/2,x+1/2,-y
  y+1/2,z+1/2,x
  -y+1/2,z+1/2,-x
  y+1/2,-z+1/2,-x
  -y+1/2,-z+1/2,x
  y+1/2,x+1/2,-z
  -y+1/2,-x+1/2,-z
  y+1/2,-x+1/2,z
  -y+1/2,x+1/2,z
  x+1/2,z+1/2,-y
  -x+1/2,z+1/2,y
  -x+1/2,-z+1/2,-y
  x+1/2,-z+1/2,y
  z+1/2,y+1/2,-x
  z+1/2,-y+1/2,x
  -z+1/2,y+1/2,x
  -z+1/2,-y+1/2,-x
  -x+1/2,-y+1/2,-z
  x+1/2,y+1/2,-z
  x+1/2,-y+1/2,z
  -x+1/2,y+1/2,z
  -z+1/2,-x+1/2,-y
  -z+1/2,x+1/2,y
  z+1/2,x+1/2,-y
  z+1/2,-x+1/2,y
  -y+1/2,-z+1/2,-x
  y+1/2,-z+1/2,x
  -y+1/2,z+1/2,x
  y+1/2,z+1/2,-x
  -y+1/2,-x+1/2,z
  y+1/2,x+1/2,z
  -y+1/2,x+1/2,-z
  y+1/2,-x+1/2,-z
  -x+1/2,-z+1/2,y
  x+1/2,-z+1/2,-y
  x+1/2,z+1/2,y
  -x+1/2,z+1/2,-y
  -z+1/2,-y+1/2,x
  -z+1/2,y+1/2,-x
  z+1/2,-y+1/2,-x
  z+1/2,y+1/2,x
_cell_length_a                    38.9621
_cell_length_b                    38.9621
_cell_length_c                    38.9621
_cell_angle_alpha                 90.0000
_cell_angle_beta                  90.0000
_cell_angle_gamma                 90.0000
loop_
_atom_site_label
_atom_site_type_symbol
_atom_site_fract_x
_atom_site_fract_y
_atom_site_fract_z
_atom_site_U_iso_or_equiv
_atom_site_adp_type
_atom_site_occupancy
C1     C     0.22603   0.12855   0.08404   0.05000  Uiso   1.00
C2     C     0.23357   0.15705   0.06083   0.05000  Uiso   1.00
O3     O     0.21179   0.16455   0.03640   0.05000  Uiso   1.00
O4     O     0.17414   0.26146   0.06714   0.05000  Uiso   1.00
C5     C     0.19785   0.10718   0.08211   0.05000  Uiso   1.00
H6     H     0.17761   0.10996   0.06346   0.05000  Uiso   1.00
H7     H     0.15093   0.51878   0.12410   0.05000  Uiso   0.75
H8     H     0.22330   0.33738   0.25013   0.05000  Uiso   0.75
O9     O    -0.63099   0.16534  -0.21901   0.03000  Uiso   0.23
H10    H    -0.62501   0.15269  -0.19779   0.03000  Uiso   0.23
H11    H    -0.64479   0.18512  -0.21097   0.03000  Uiso   0.23
O12    O     0.34455   0.22861  -0.03157   0.03000  Uiso   0.39
H13    H     0.32583   0.22793  -0.01439   0.03000  Uiso   0.39
H14    H     0.35824   0.20771  -0.02690   0.03000  Uiso   0.39
C15    C     0.32867   0.50000   0.32867   0.05000  Uiso   1.00
C16    C     0.14433   0.50000   0.14433   0.05000  Uiso   1.00
C17    C     0.25000   0.61479   0.25000   0.05000  Uiso   1.00
C18    C     0.25000   0.65297   0.25000   0.05000  Uiso   1.00
H19    H     0.17181   0.50000   0.23651   0.05000  Uiso   0.50
H20    H     0.28159   0.56475   0.21841   0.05000  Uiso   0.50
Zr21   Zr    0.21931   0.28069   0.04459   0.05000  Uiso   1.00
O22    O     0.18204   0.31796   0.02953   0.05000  Uiso   1.00
O23    O     0.22909   0.27091   0.09962   0.05000  Uiso   1.00
Zr24   Zr    0.20673   0.20673   0.00000   0.05000  Uiso   1.00
S25    S     0.25291   0.11736   0.11736   0.05000  Uiso   1.00
O26    O     0.22848   0.22848   0.04396   0.05000  Uiso   1.00
O27    O     0.24060   0.30326   0.00000   0.05000  Uiso   1.00
Kr1    Kr    0.25000   0.75000   0.75000   0.05000  Uiso   1.00  
Xe2    Xe    0.50000    0.5000   0.00000   0.05000  Uiso   1.00 
Rn3    Rn    0.500000   0.5000   0.50000   0.05000  Uiso  1.00
loop_
_geom_bond_atom_site_label_1
_geom_bond_atom_site_label_2
_geom_bond_distance
_geom_bond_site_symmetry_2
_ccdc_geom_bond_type
C1     S25     1.724   .     S
C1     C5      1.380   .     D
C1     C2      1.462   .     S
C2     O3      1.308   .     A
C2     O4      1.298   38    A
O3     Zr24    2.180   .     S
O4     Zr21    2.105   .     S
O4     C2      1.298   38    A
C5     H6      1.078   .     S
C5     C5      1.381   43    S
H7     C16     1.106   .     S
H8     C18     1.106   22_565 S
O9     H10     0.991   .     S
O9     H11     0.991   .     S
O12    H13     0.990   .     S
O12    H14     0.990   .     S
C15    O22     1.293   84    A
C15    O22     1.293   59    A
C15    C16     1.487   99    S
C16    C15     1.487   99    S
C16    H7      1.106   48    S
C16    H7      1.106   27_565 S
C16    H7      1.106   22_565 S
C17    O23     1.295   65    A
C17    O23     1.295   84    A
C17    C18     1.488   .     S
C18    H8      1.106   121_565 S
C18    H8      1.106   120_565 S
C18    H8      1.106   27_565 S
C18    H8      1.106   22_565 S
H19    O27     0.984   156   S
H20    O26     0.982   162   S
Zr21   O4      2.105   181   S
Zr21   O26     2.066   .     S
Zr21   O26     2.066   146   S
Zr21   O27     2.117   .     S
Zr21   O27     2.117   158   S
Zr21   O22     2.135   .     S
Zr21   O23     2.211   .     S
O22    C15     1.293   104   A
O23    C17     1.295   68_554 A
Zr24   O3      2.180   13    S
Zr24   O3      2.180   26    S
Zr24   O3      2.180   38    S
Zr24   O26     2.091   .     S
Zr24   O26     2.091   13    S
Zr24   O27     2.089   158   S
Zr24   O27     2.089   146   S
S25    C1      1.724   43    S
O26    Zr21    2.066   38    S
O26    H20     0.982   80_554 S
O27    Zr21    2.117   26    S
O27    H19     0.984   54    S
O27    Zr24    2.089   146   S
