# generated using pymatgen
data_CuH18(C15O2)2
_symmetry_space_group_name_H-M   'P 1'
_cell_length_a   48.54083602
_cell_length_b   48.54083602
_cell_length_c   48.54083602
_cell_angle_alpha   60.00000000
_cell_angle_beta   60.00000000
_cell_angle_gamma   60.00000000
_symmetry_Int_Tables_number   1
_chemical_formula_structural   CuH18(C15O2)2
_chemical_formula_sum   'Cu12 H216 C360 O48'
_cell_volume   80873.59667188532
_cell_formula_units_Z   12
loop_
 _symmetry_equiv_pos_site_id
 _symmetry_equiv_pos_as_xyz
  1  'x, y, z'
loop_
 _atom_site_type_symbol
 _atom_site_label
 _atom_site_symmetry_multiplicity
 _atom_site_fract_x
 _atom_site_fract_y
 _atom_site_fract_z
 _atom_site_occupancy
  Cu  Cu1  1  0.026675  0.501409  0.972447  1
  Cu  Cu2  1  0.976306  0.026357  0.498573  1
  Cu  Cu3  1  0.500319  0.972732  0.025857  1
  Cu  Cu4  1  0.500665  0.026241  0.500644  1
  Cu  Cu5  1  0.499530  0.498443  0.975038  1
  Cu  Cu6  1  0.499311  0.498379  0.026114  1
  Cu  Cu7  1  0.972161  0.500549  0.500420  1
  Cu  Cu8  1  0.027275  0.975513  0.498455  1
  Cu  Cu9  1  0.975764  0.501265  0.023335  1
  Cu  Cu10  1  0.500306  0.023791  0.975051  1
  Cu  Cu11  1  0.500847  0.975305  0.500446  1
  Cu  Cu12  1  0.022912  0.500653  0.500603  1
  H  H13  1  0.187056  0.186081  0.095323  1
  H  H14  1  0.097001  0.186804  0.182476  1
  H  H15  1  0.184848  0.097489  0.183935  1
  H  H16  1  0.815247  0.814965  0.900990  1
  H  H17  1  0.904083  0.816503  0.812621  1
  H  H18  1  0.815232  0.904840  0.813654  1
  H  H19  1  0.467241  0.901590  0.815500  1
  H  H20  1  0.465432  0.813850  0.815652  1
  H  H21  1  0.468153  0.812423  0.903613  1
  H  H22  1  0.901733  0.469032  0.814805  1
  H  H23  1  0.814306  0.466421  0.904511  1
  H  H24  1  0.812855  0.468950  0.815373  1
  H  H25  1  0.185384  0.186053  0.533861  1
  H  H26  1  0.186681  0.097316  0.532856  1
  H  H27  1  0.098136  0.185986  0.531220  1
  H  H28  1  0.904634  0.815163  0.465892  1
  H  H29  1  0.816528  0.904245  0.466700  1
  H  H30  1  0.814444  0.815821  0.468427  1
  H  H31  1  0.184936  0.533296  0.185165  1
  H  H32  1  0.183287  0.534440  0.096801  1
  H  H33  1  0.095284  0.534483  0.186030  1
  H  H34  1  0.533823  0.094602  0.186636  1
  H  H35  1  0.531506  0.184962  0.185387  1
  H  H36  1  0.533277  0.182352  0.097204  1
  H  H37  1  0.144203  0.221629  0.070249  1
  H  H38  1  0.096684  0.168296  0.237003  1
  H  H39  1  0.238894  0.096470  0.165731  1
  H  H40  1  0.141515  0.074337  0.218474  1
  H  H41  1  0.097992  0.240376  0.164267  1
  H  H42  1  0.221083  0.142324  0.071256  1
  H  H43  1  0.858934  0.780883  0.925197  1
  H  H44  1  0.927601  0.859535  0.778366  1
  H  H45  1  0.761343  0.904480  0.831882  1
  H  H46  1  0.833978  0.905120  0.759018  1
  H  H47  1  0.904572  0.762458  0.831074  1
  H  H48  1  0.780177  0.857706  0.925925  1
  H  H49  1  0.434441  0.925865  0.781002  1
  H  H50  1  0.501337  0.759659  0.833757  1
  H  H51  1  0.435464  0.855861  0.928153  1
  H  H52  1  0.926337  0.436844  0.857335  1
  H  H53  1  0.759778  0.501634  0.905194  1
  H  H54  1  0.855957  0.436580  0.780212  1
  H  H55  1  0.239999  0.167538  0.498003  1
  H  H56  1  0.168295  0.097101  0.497505  1
  H  H57  1  0.073111  0.220759  0.564095  1
  H  H58  1  0.434531  0.778036  0.927905  1
  H  H59  1  0.502118  0.832509  0.761197  1
  H  H60  1  0.502690  0.901028  0.833988  1
  H  H61  1  0.905056  0.833650  0.501728  1
  H  H62  1  0.762297  0.904640  0.502085  1
  H  H63  1  0.856919  0.780770  0.435751  1
  H  H64  1  0.219751  0.565537  0.141806  1
  H  H65  1  0.140227  0.567138  0.073243  1
  H  H66  1  0.072165  0.566548  0.220554  1
  H  H67  1  0.497233  0.096119  0.240432  1
  H  H68  1  0.564988  0.218938  0.141663  1
  H  H69  1  0.565473  0.138968  0.074162  1
  H  H70  1  0.094555  0.499860  0.166942  1
  H  H71  1  0.237269  0.498781  0.096476  1
  H  H72  1  0.165844  0.498049  0.239408  1
  H  H73  1  0.780436  0.859739  0.434674  1
  H  H74  1  0.860073  0.927455  0.434056  1
  H  H75  1  0.903986  0.761292  0.501898  1
  H  H76  1  0.498379  0.236603  0.096089  1
  H  H77  1  0.564642  0.141991  0.220463  1
  H  H78  1  0.498414  0.093601  0.168351  1
  H  H79  1  0.074067  0.142184  0.564733  1
  H  H80  1  0.220980  0.073741  0.565251  1
  H  H81  1  0.166936  0.240089  0.498098  1
  H  H82  1  0.779139  0.434926  0.858832  1
  H  H83  1  0.832414  0.503191  0.903940  1
  H  H84  1  0.901285  0.503993  0.761293  1
  H  H85  1  0.116699  0.281399  0.042006  1
  H  H86  1  0.068738  0.140477  0.296650  1
  H  H87  1  0.298395  0.067794  0.138280  1
  H  H88  1  0.113688  0.046422  0.278235  1
  H  H89  1  0.070313  0.300002  0.136144  1
  H  H90  1  0.280708  0.113760  0.043706  1
  H  H91  1  0.887171  0.721245  0.953059  1
  H  H92  1  0.955925  0.887371  0.718761  1
  H  H93  1  0.701719  0.932037  0.860135  1
  H  H94  1  0.862207  0.933080  0.699521  1
  H  H95  1  0.932893  0.702927  0.858847  1
  H  H96  1  0.720421  0.885092  0.954291  1
  H  H97  1  0.438292  0.954555  0.721267  1
  H  H98  1  0.504771  0.700147  0.861480  1
  H  H99  1  0.439698  0.883587  0.956021  1
  H  H100  1  0.954803  0.440913  0.884575  1
  H  H101  1  0.700446  0.504418  0.933551  1
  H  H102  1  0.883290  0.440786  0.720405  1
  H  H103  1  0.299524  0.139467  0.494609  1
  H  H104  1  0.140661  0.068992  0.493591  1
  H  H105  1  0.044494  0.280437  0.560375  1
  H  H106  1  0.438088  0.718393  0.955742  1
  H  H107  1  0.505920  0.861112  0.701558  1
  H  H108  1  0.506774  0.928878  0.861754  1
  H  H109  1  0.933429  0.861491  0.504998  1
  H  H110  1  0.702614  0.932677  0.506063  1
  H  H111  1  0.883961  0.721026  0.439702  1
  H  H112  1  0.279624  0.561150  0.113868  1
  H  H113  1  0.112765  0.563289  0.044833  1
  H  H114  1  0.044078  0.562221  0.280399  1
  H  H115  1  0.493604  0.068865  0.300009  1
  H  H116  1  0.560914  0.278711  0.113546  1
  H  H117  1  0.561841  0.110668  0.046448  1
  H  H118  1  0.066997  0.496132  0.138611  1
  H  H119  1  0.297040  0.494486  0.068469  1
  H  H120  1  0.137826  0.493831  0.299163  1
  H  H121  1  0.720659  0.887709  0.438731  1
  H  H122  1  0.888360  0.955384  0.437421  1
  H  H123  1  0.931200  0.701687  0.505651  1
  H  H124  1  0.494446  0.296265  0.067853  1
  H  H125  1  0.560892  0.114850  0.280159  1
  H  H126  1  0.494938  0.065163  0.140731  1
  H  H127  1  0.046344  0.114148  0.560729  1
  H  H128  1  0.280614  0.045575  0.561725  1
  H  H129  1  0.138432  0.299632  0.494580  1
  H  H130  1  0.719674  0.437865  0.887056  1
  H  H131  1  0.860794  0.507175  0.931255  1
  H  H132  1  0.928783  0.508009  0.701616  1
  H  H133  1  0.117365  0.336108  0.023884  1
  H  H134  1  0.026537  0.116774  0.333557  1
  H  H135  1  0.334605  0.025321  0.114675  1
  H  H136  1  0.115505  0.028068  0.332228  1
  H  H137  1  0.028076  0.335806  0.112268  1
  H  H138  1  0.335124  0.114240  0.025912  1
  H  H139  1  0.886270  0.667029  0.971287  1
  H  H140  1  0.974611  0.886098  0.664406  1
  H  H141  1  0.665310  0.973818  0.884597  1
  H  H142  1  0.886048  0.975212  0.663339  1
  H  H143  1  0.975233  0.666553  0.882563  1
  H  H144  1  0.666165  0.883889  0.972328  1
  H  H145  1  0.475360  0.973527  0.667031  1
  H  H146  1  0.475282  0.663694  0.885185  1
  H  H147  1  0.476972  0.882536  0.974154  1
  H  H148  1  0.973155  0.478088  0.883259  1
  H  H149  1  0.664363  0.474319  0.975620  1
  H  H150  1  0.881967  0.478032  0.666021  1
  H  H151  1  0.335660  0.115709  0.524469  1
  H  H152  1  0.117156  0.026651  0.522709  1
  H  H153  1  0.026293  0.334770  0.523040  1
  H  H154  1  0.475118  0.664123  0.973898  1
  H  H155  1  0.476601  0.885025  0.665133  1
  H  H156  1  0.477139  0.971351  0.885284  1
  H  H157  1  0.975859  0.884996  0.475447  1
  H  H158  1  0.665746  0.975023  0.477008  1
  H  H159  1  0.882739  0.666533  0.477126  1
  H  H160  1  0.333596  0.523471  0.115279  1
  H  H161  1  0.114696  0.525855  0.026300  1
  H  H162  1  0.025316  0.524892  0.334302  1
  H  H163  1  0.523622  0.026856  0.335872  1
  H  H164  1  0.523286  0.332621  0.114984  1
  H  H165  1  0.524422  0.112186  0.028395  1
  H  H166  1  0.025148  0.525472  0.114411  1
  H  H167  1  0.333988  0.523527  0.026213  1
  H  H168  1  0.114251  0.522863  0.336109  1
  H  H169  1  0.666661  0.886271  0.475913  1
  H  H170  1  0.887201  0.974013  0.474184  1
  H  H171  1  0.972816  0.665610  0.475542  1
  H  H172  1  0.523627  0.333290  0.025637  1
  H  H173  1  0.524141  0.115995  0.334756  1
  H  H174  1  0.524304  0.022884  0.116774  1
  H  H175  1  0.028140  0.115319  0.523676  1
  H  H176  1  0.335025  0.027112  0.524615  1
  H  H177  1  0.113738  0.335847  0.524717  1
  H  H178  1  0.665272  0.474712  0.886127  1
  H  H179  1  0.885116  0.477745  0.972893  1
  H  H180  1  0.971087  0.478154  0.665339  1
  H  H181  1  0.090001  0.397025  -0.003079  1
  H  H182  1  0.000781  0.089582  0.394834  1
  H  H183  1  0.395753  -0.001445  0.087944  1
  H  H184  1  0.089046  0.000882  0.393344  1
  H  H185  1  0.001376  0.396900  0.085295  1
  H  H186  1  0.396072  0.086812  -0.000797  1
  H  H187  1  0.913347  0.606093  0.998436  1
  H  H188  1  1.002033  0.912939  0.603465  1
  H  H189  1  0.604162  0.999804  0.912049  1
  H  H190  1  0.913470  1.001351  0.602224  1
  H  H191  1  1.001632  0.605430  0.909728  1
  H  H192  1  0.605189  0.910559  0.999790  1
  H  H193  1  0.482579  1.001067  0.605969  1
  H  H194  1  0.483174  0.602511  0.912194  1
  H  H195  1  0.483693  0.909793  1.001110  1
  H  H196  1  1.000725  0.484862  0.909875  1
  H  H197  1  0.603252  0.481849  1.001746  1
  H  H198  1  0.909077  0.484392  0.605154  1
  H  H199  1  0.396817  0.088525  0.516751  1
  H  H200  1  0.090204  0.000446  0.514640  1
  H  H201  1  -0.001454  0.395675  0.516524  1
  H  H202  1  0.482149  0.603115  1.000900  1
  H  H203  1  0.484641  0.912582  0.603927  1
  H  H204  1  0.484676  0.997945  0.912272  1
  H  H205  1  1.002160  0.912265  0.482993  1
  H  H206  1  0.604550  1.001150  0.484929  1
  H  H207  1  0.909366  0.605552  0.483940  1
  H  H208  1  0.394706  0.515990  0.088488  1
  H  H209  1  0.088464  0.518627  -0.001305  1
  H  H210  1  -0.002233  0.518020  0.395285  1
  H  H211  1  0.516387  0.000611  0.396908  1
  H  H212  1  0.516133  0.393654  0.088241  1
  H  H213  1  0.517339  0.085552  0.001093  1
  H  H214  1  -0.000400  0.517405  0.086805  1
  H  H215  1  0.395274  0.515214  0.000095  1
  H  H216  1  0.086658  0.515209  0.397242  1
  H  H217  1  0.605641  0.913082  0.483008  1
  H  H218  1  0.914189  1.001254  0.480890  1
  H  H219  1  0.998761  0.604477  0.483203  1
  H  H220  1  0.515653  0.394499  -0.000437  1
  H  H221  1  0.517731  0.089064  0.395634  1
  H  H222  1  0.516412  -0.003085  0.089443  1
  H  H223  1  0.001193  0.088405  0.516495  1
  H  H224  1  0.396015  -0.000053  0.517721  1
  H  H225  1  0.085986  0.396914  0.517376  1
  H  H226  1  0.604343  0.481389  0.912935  1
  H  H227  1  0.912667  0.485402  0.998802  1
  H  H228  1  0.997501  0.485386  0.604298  1
  C  C229  1  0.173186  0.172904  0.120628  1
  C  C230  1  0.123206  0.173803  0.170126  1
  C  C231  1  0.172204  0.123431  0.170664  1
  C  C232  1  0.828563  0.828704  0.875689  1
  C  C233  1  0.878168  0.829310  0.825792  1
  C  C234  1  0.828050  0.878591  0.826094  1
  C  C235  1  0.466816  0.875798  0.828521  1
  C  C236  1  0.466608  0.826299  0.828331  1
  C  C237  1  0.466517  0.826026  0.878263  1
  C  C238  1  0.876027  0.468365  0.828098  1
  C  C239  1  0.826693  0.467706  0.878175  1
  C  C240  1  0.826431  0.467490  0.828673  1
  C  C241  1  0.172983  0.173245  0.532802  1
  C  C242  1  0.173441  0.123188  0.533049  1
  C  C243  1  0.123448  0.172695  0.532944  1
  C  C244  1  0.878379  0.828107  0.466909  1
  C  C245  1  0.829220  0.878362  0.466544  1
  C  C246  1  0.828314  0.828988  0.466699  1
  C  C247  1  0.171465  0.533967  0.172261  1
  C  C248  1  0.170546  0.534605  0.122679  1
  C  C249  1  0.121168  0.534632  0.172729  1
  C  C250  1  0.532874  0.120833  0.173534  1
  C  C251  1  0.533199  0.171002  0.172333  1
  C  C252  1  0.533400  0.169785  0.123096  1
  C  C253  1  0.139972  0.190504  0.136765  1
  C  C254  1  0.139012  0.140337  0.187496  1
  C  C255  1  0.189676  0.139376  0.137299  1
  C  C256  1  0.862038  0.811994  0.859143  1
  C  C257  1  0.861484  0.862564  0.808859  1
  C  C258  1  0.811183  0.861987  0.859452  1
  C  C259  1  0.466877  0.859587  0.811326  1
  C  C260  1  0.466544  0.809123  0.861741  1
  C  C261  1  0.466814  0.859329  0.861916  1
  C  C262  1  0.859856  0.468358  0.861473  1
  C  C263  1  0.809583  0.467392  0.862107  1
  C  C264  1  0.859630  0.468079  0.811288  1
  C  C265  1  0.190303  0.139867  0.532800  1
  C  C266  1  0.140073  0.139276  0.532998  1
  C  C267  1  0.139615  0.190071  0.532723  1
  C  C268  1  0.862511  0.861510  0.466821  1
  C  C269  1  0.811748  0.862430  0.466577  1
  C  C270  1  0.861596  0.811430  0.467006  1
  C  C271  1  0.188111  0.534075  0.138838  1
  C  C272  1  0.137119  0.534750  0.139314  1
  C  C273  1  0.138029  0.534122  0.189593  1
  C  C274  1  0.532819  0.137752  0.190044  1
  C  C275  1  0.533369  0.187407  0.138871  1
  C  C276  1  0.533017  0.136528  0.140119  1
  C  C277  1  0.123195  0.226262  0.119516  1
  C  C278  1  0.121377  0.123501  0.223058  1
  C  C279  1  0.225298  0.121657  0.120661  1
  C  C280  1  0.879531  0.776351  0.875950  1
  C  C281  1  0.878570  0.880085  0.773359  1
  C  C282  1  0.775476  0.878921  0.876659  1
  C  C283  1  0.468018  0.876946  0.775753  1
  C  C284  1  0.467708  0.773536  0.878642  1
  C  C285  1  0.468687  0.876321  0.878856  1
  C  C286  1  0.877132  0.469730  0.878478  1
  C  C287  1  0.774130  0.468119  0.879724  1
  C  C288  1  0.876501  0.469914  0.775491  1
  C  C289  1  0.225822  0.122849  0.531848  1
  C  C290  1  0.123356  0.121863  0.531414  1
  C  C291  1  0.122284  0.225716  0.531365  1
  C  C292  1  0.880265  0.878369  0.467711  1
  C  C293  1  0.776049  0.879950  0.468104  1
  C  C294  1  0.878333  0.775747  0.468504  1
  C  C295  1  0.223835  0.532458  0.121366  1
  C  C296  1  0.119613  0.533720  0.122303  1
  C  C297  1  0.121198  0.532588  0.225299  1
  C  C298  1  0.531276  0.121138  0.225740  1
  C  C299  1  0.531932  0.223080  0.121163  1
  C  C300  1  0.532098  0.118637  0.123419  1
  C  C301  1  0.128374  0.238818  0.084785  1
  C  C302  1  0.100010  0.141656  0.245739  1
  C  C303  1  0.247739  0.099858  0.139058  1
  C  C304  1  0.125935  0.088916  0.235622  1
  C  C305  1  0.101678  0.249057  0.137541  1
  C  C306  1  0.238053  0.126336  0.086030  1
  C  C307  1  0.874795  0.763771  0.910577  1
  C  C308  1  0.913188  0.875287  0.761064  1
  C  C309  1  0.752681  0.900631  0.858648  1
  C  C310  1  0.860632  0.901630  0.750496  1
  C  C311  1  0.901157  0.753733  0.857738  1
  C  C312  1  0.762966  0.873626  0.911413  1
  C  C313  1  0.450554  0.911599  0.763566  1
  C  C314  1  0.486848  0.750920  0.860428  1
  C  C315  1  0.451543  0.871516  0.913511  1
  C  C316  1  0.911880  0.452718  0.873182  1
  C  C317  1  0.751305  0.487021  0.901610  1
  C  C318  1  0.871554  0.452702  0.762975  1
  C  C319  1  0.248599  0.140882  0.512603  1
  C  C320  1  0.141640  0.100429  0.512000  1
  C  C321  1  0.087518  0.238065  0.548373  1
  C  C322  1  0.450400  0.760940  0.913267  1
  C  C323  1  0.487515  0.859185  0.752726  1
  C  C324  1  0.488230  0.897626  0.860659  1
  C  C325  1  0.901782  0.860261  0.487018  1
  C  C326  1  0.753473  0.901333  0.487567  1
  C  C327  1  0.872837  0.763420  0.451543  1
  C  C328  1  0.236708  0.549510  0.126089  1
  C  C329  1  0.124524  0.551125  0.087654  1
  C  C330  1  0.086634  0.550154  0.237798  1
  C  C331  1  0.511818  0.099813  0.248843  1
  C  C332  1  0.549064  0.235906  0.125844  1
  C  C333  1  0.549530  0.123175  0.088834  1
  C  C334  1  0.098133  0.514398  0.140256  1
  C  C335  1  0.246260  0.513076  0.099890  1
  C  C336  1  0.139233  0.512735  0.248098  1
  C  C337  1  0.763356  0.875382  0.450766  1
  C  C338  1  0.875782  0.912922  0.450073  1
  C  C339  1  0.900007  0.752777  0.487613  1
  C  C340  1  0.512726  0.245519  0.099520  1
  C  C341  1  0.548612  0.126321  0.237918  1
  C  C342  1  0.512939  0.096961  0.141697  1
  C  C343  1  0.088744  0.126484  0.548697  1
  C  C344  1  0.238215  0.088228  0.549307  1
  C  C345  1  0.140162  0.248622  0.512390  1
  C  C346  1  0.761863  0.450632  0.874843  1
  C  C347  1  0.859178  0.488915  0.900093  1
  C  C348  1  0.897754  0.489487  0.752646  1
  C  C349  1  0.112804  0.272635  0.068804  1
  C  C350  1  0.084196  0.125917  0.279493  1
  C  C351  1  0.281417  0.083637  0.123522  1
  C  C352  1  0.110189  0.073123  0.269433  1
  C  C353  1  0.086021  0.282796  0.121633  1
  C  C354  1  0.271785  0.110181  0.070444  1
  C  C355  1  0.890760  0.730035  0.926336  1
  C  C356  1  0.929212  0.891033  0.727343  1
  C  C357  1  0.718938  0.916218  0.874633  1
  C  C358  1  0.876601  0.917445  0.716832  1
  C  C359  1  0.917179  0.720044  0.873455  1
  C  C360  1  0.729160  0.889122  0.927463  1
  C  C361  1  0.452747  0.927825  0.729777  1
  C  C362  1  0.488790  0.717241  0.876113  1
  C  C363  1  0.453945  0.887195  0.929280  1
  C  C364  1  0.927987  0.455034  0.888581  1
  C  C365  1  0.717726  0.488602  0.917657  1
  C  C366  1  0.887010  0.455087  0.729133  1
  C  C367  1  0.282276  0.125003  0.510669  1
  C  C368  1  0.125997  0.084531  0.509777  1
  C  C369  1  0.071327  0.271825  0.546275  1
  C  C370  1  0.452408  0.727198  0.929013  1
  C  C371  1  0.489664  0.875363  0.718996  1
  C  C372  1  0.490557  0.913373  0.876373  1
  C  C373  1  0.917842  0.876010  0.488869  1
  C  C374  1  0.719695  0.917193  0.489823  1
  C  C375  1  0.888137  0.729622  0.453776  1
  C  C376  1  0.270576  0.547022  0.110290  1
  C  C377  1  0.109002  0.548939  0.071580  1
  C  C378  1  0.070742  0.547694  0.271654  1
  C  C379  1  0.509758  0.084399  0.282548  1
  C  C380  1  0.546752  0.269721  0.109947  1
  C  C381  1  0.547475  0.107162  0.073155  1
  C  C382  1  0.082552  0.512281  0.124220  1
  C  C383  1  0.280079  0.510645  0.084045  1
  C  C384  1  0.123375  0.510340  0.281915  1
  C  C385  1  0.729540  0.891191  0.453076  1
  C  C386  1  0.891786  0.928720  0.451980  1
  C  C387  1  0.915395  0.719048  0.489755  1
  C  C388  1  0.510488  0.279294  0.083548  1
  C  C389  1  0.546485  0.110971  0.271691  1
  C  C390  1  0.510961  0.080870  0.126069  1
  C  C391  1  0.073059  0.110638  0.546416  1
  C  C392  1  0.271952  0.072293  0.547304  1
  C  C393  1  0.124037  0.282319  0.510384  1
  C  C394  1  0.728223  0.452291  0.890815  1
  C  C395  1  0.875236  0.491177  0.915542  1
  C  C396  1  0.913298  0.491785  0.718862  1
  C  C397  1  0.091270  0.295391  0.086876  1
  C  C398  1  0.089107  0.091231  0.292177  1
  C  C399  1  0.294261  0.088536  0.088826  1
  C  C400  1  0.912231  0.707378  0.908149  1
  C  C401  1  0.911301  0.912366  0.704436  1
  C  C402  1  0.706362  0.910725  0.909442  1
  C  C403  1  0.472455  0.910087  0.706709  1
  C  C404  1  0.471767  0.704545  0.910818  1
  C  C405  1  0.473541  0.908459  0.911066  1
  C  C406  1  0.910045  0.474397  0.910037  1
  C  C407  1  0.705350  0.471439  0.912474  1
  C  C408  1  0.908231  0.474701  0.706299  1
  C  C409  1  0.294767  0.090307  0.527846  1
  C  C410  1  0.091315  0.089381  0.526809  1
  C  C411  1  0.089212  0.294737  0.527164  1
  C  C412  1  0.913058  0.910653  0.471549  1
  C  C413  1  0.706903  0.912356  0.472774  1
  C  C414  1  0.909728  0.706659  0.472979  1
  C  C415  1  0.293056  0.527414  0.089023  1
  C  C416  1  0.087801  0.529318  0.089475  1
  C  C417  1  0.088730  0.527622  0.294511  1
  C  C418  1  0.526994  0.089666  0.294775  1
  C  C419  1  0.527273  0.292228  0.088558  1
  C  C420  1  0.527984  0.085797  0.091375  1
  C  C421  1  0.074848  0.331415  0.070209  1
  C  C422  1  0.073072  0.074546  0.328320  1
  C  C423  1  0.330300  0.071911  0.072399  1
  C  C424  1  0.928648  0.671348  0.924795  1
  C  C425  1  0.928177  0.928574  0.668420  1
  C  C426  1  0.670294  0.926792  0.926312  1
  C  C427  1  0.475646  0.927106  0.670634  1
  C  C428  1  0.474857  0.668480  0.927417  1
  C  C429  1  0.476701  0.924840  0.927608  1
  C  C430  1  0.926978  0.477561  0.926018  1
  C  C431  1  0.669369  0.474214  0.928783  1
  C  C432  1  0.924444  0.477751  0.670244  1
  C  C433  1  0.330798  0.073550  0.524857  1
  C  C434  1  0.074767  0.073078  0.523554  1
  C  C435  1  0.072181  0.330759  0.524209  1
  C  C436  1  0.929429  0.927364  0.474495  1
  C  C437  1  0.670783  0.928572  0.476079  1
  C  C438  1  0.925716  0.670616  0.476018  1
  C  C439  1  0.329217  0.523910  0.072813  1
  C  C440  1  0.071948  0.526035  0.072513  1
  C  C441  1  0.071920  0.524276  0.330634  1
  C  C442  1  0.524163  0.073518  0.330768  1
  C  C443  1  0.523879  0.328369  0.072367  1
  C  C444  1  0.524747  0.069598  0.074711  1
  C  C445  1  0.091693  0.349139  0.037311  1
  C  C446  1  0.040600  0.091504  0.346592  1
  C  C447  1  0.348020  0.039151  0.089495  1
  C  C448  1  0.090093  0.041520  0.345670  1
  C  C449  1  0.041999  0.349174  0.087123  1
  C  C450  1  0.348114  0.088629  0.039479  1
  C  C451  1  0.911815  0.653821  0.957824  1
  C  C452  1  0.961237  0.911620  0.651064  1
  C  C453  1  0.652190  0.959597  0.909699  1
  C  C454  1  0.911335  0.961206  0.650274  1
  C  C455  1  0.961315  0.653363  0.907830  1
  C  C456  1  0.652863  0.909548  0.959153  1
  C  C457  1  0.476827  0.960192  0.653481  1
  C  C458  1  0.477209  0.650485  0.910418  1
  C  C459  1  0.478079  0.908089  0.960617  1
  C  C460  1  0.959925  0.479122  0.908840  1
  C  C461  1  0.651272  0.476290  0.961527  1
  C  C462  1  0.907547  0.479070  0.652788  1
  C  C463  1  0.348834  0.090474  0.522551  1
  C  C464  1  0.091872  0.040554  0.520910  1
  C  C465  1  0.039336  0.348101  0.522382  1
  C  C466  1  0.476298  0.650910  0.960406  1
  C  C467  1  0.478339  0.910325  0.652230  1
  C  C468  1  0.478994  0.957507  0.910547  1
  C  C469  1  0.961978  0.910348  0.477070  1
  C  C470  1  0.652639  0.961083  0.478751  1
  C  C471  1  0.908422  0.653217  0.477880  1
  C  C472  1  0.346830  0.522243  0.089771  1
  C  C473  1  0.089210  0.524568  0.039531  1
  C  C474  1  0.038746  0.523331  0.347814  1
  C  C475  1  0.521890  0.040851  0.348914  1
  C  C476  1  0.522190  0.345897  0.089427  1
  C  C477  1  0.523250  0.086658  0.041741  1
  C  C478  1  0.039380  0.523536  0.089189  1
  C  C479  1  0.347233  0.521447  0.040218  1
  C  C480  1  0.088849  0.521377  0.349014  1
  C  C481  1  0.653338  0.911711  0.477321  1
  C  C482  1  0.912658  0.960496  0.475547  1
  C  C483  1  0.958560  0.652504  0.477821  1
  C  C484  1  0.521569  0.346450  0.039714  1
  C  C485  1  0.523000  0.090452  0.348088  1
  C  C486  1  0.522365  0.036974  0.091547  1
  C  C487  1  0.041721  0.089879  0.522269  1
  C  C488  1  0.348286  0.040551  0.523447  1
  C  C489  1  0.088630  0.348900  0.522495  1
  C  C490  1  0.651970  0.475694  0.911727  1
  C  C491  1  0.910310  0.479754  0.958713  1
  C  C492  1  0.957135  0.479966  0.652201  1
  C  C493  1  0.076608  0.383346  0.022151  1
  C  C494  1  0.025905  0.076327  0.380873  1
  C  C495  1  0.382223  0.023892  0.074571  1
  C  C496  1  0.075528  0.026232  0.379977  1
  C  C497  1  0.026784  0.383341  0.072069  1
  C  C498  1  0.382338  0.073505  0.024449  1
  C  C499  1  0.926731  0.619607  0.973095  1
  C  C500  1  0.976661  0.926404  0.616851  1
  C  C501  1  0.617990  0.974421  0.925035  1
  C  C502  1  0.926641  0.976111  0.616093  1
  C  C503  1  0.976365  0.619172  0.922992  1
  C  C504  1  0.618634  0.924243  0.974600  1
  C  C505  1  0.481136  0.975681  0.619202  1
  C  C506  1  0.481373  0.616252  0.925497  1
  C  C507  1  0.482114  0.923111  0.975778  1
  C  C508  1  0.975433  0.483177  0.923503  1
  C  C509  1  0.617089  0.480241  0.976429  1
  C  C510  1  0.922486  0.482890  0.618612  1
  C  C511  1  0.383035  0.075300  0.518495  1
  C  C512  1  0.076824  0.025605  0.516654  1
  C  C513  1  0.023734  0.382290  0.518471  1
  C  C514  1  0.480509  0.616654  0.975592  1
  C  C515  1  0.482585  0.925702  0.617997  1
  C  C516  1  0.482970  0.972663  0.925606  1
  C  C517  1  0.976980  0.925568  0.481036  1
  C  C518  1  0.618402  0.975988  0.482927  1
  C  C519  1  0.923094  0.618985  0.481953  1
  C  C520  1  0.381135  0.517789  0.075014  1
  C  C521  1  0.074767  0.520261  0.024006  1
  C  C522  1  0.023242  0.519230  0.382046  1
  C  C523  1  0.518111  0.025880  0.383048  1
  C  C524  1  0.517922  0.380162  0.074695  1
  C  C525  1  0.519015  0.071991  0.026387  1
  C  C526  1  0.024808  0.519277  0.073779  1
  C  C527  1  0.381516  0.517042  0.025327  1
  C  C528  1  0.073449  0.517345  0.383210  1
  C  C529  1  0.619079  0.926479  0.481553  1
  C  C530  1  0.927526  0.975825  0.479562  1
  C  C531  1  0.973354  0.618316  0.481840  1
  C  C532  1  0.517363  0.380696  0.024842  1
  C  C533  1  0.519158  0.075608  0.382270  1
  C  C534  1  0.518192  0.022164  0.076292  1
  C  C535  1  0.026561  0.075054  0.517982  1
  C  C536  1  0.382523  0.025268  0.519331  1
  C  C537  1  0.073134  0.383054  0.518645  1
  C  C538  1  0.617761  0.479698  0.926497  1
  C  C539  1  0.925698  0.483772  0.973497  1
  C  C540  1  0.972195  0.483751  0.618060  1
  C  C541  1  0.044047  0.400839  0.039479  1
  C  C542  1  0.043331  0.043579  0.397966  1
  C  C543  1  0.399797  0.041038  0.041954  1
  C  C544  1  0.959102  0.601885  0.955722  1
  C  C545  1  0.959409  0.958747  0.598974  1
  C  C546  1  0.600808  0.956778  0.957589  1
  C  C547  1  0.484264  0.958479  0.601075  1
  C  C548  1  0.483292  0.598926  0.958189  1
  C  C549  1  0.484753  0.955521  0.958347  1
  C  C550  1  0.958375  0.485726  0.955940  1
  C  C551  1  0.599921  0.482232  0.958943  1
  C  C552  1  0.954932  0.485425  0.600863  1
  C  C553  1  0.400289  0.042603  0.516599  1
  C  C554  1  0.044067  0.042827  0.514908  1
  C  C555  1  0.040569  0.400147  0.516403  1
  C  C556  1  0.959787  0.958410  0.482554  1
  C  C557  1  0.601221  0.958727  0.484576  1
  C  C558  1  0.955657  0.601146  0.484182  1
  C  C559  1  0.398865  0.514968  0.042682  1
  C  C560  1  0.042459  0.517398  0.041073  1
  C  C561  1  0.040518  0.516063  0.400120  1
  C  C562  1  0.516482  0.043219  0.400138  1
  C  C563  1  0.515304  0.397953  0.042283  1
  C  C564  1  0.516269  0.039633  0.043600  1
  C  C565  1  0.028115  0.437862  0.023727  1
  C  C566  1  0.027896  0.027604  0.435049  1
  C  C567  1  0.436846  0.025123  0.026278  1
  C  C568  1  0.974811  0.564847  0.971608  1
  C  C569  1  0.975430  0.974391  0.561952  1
  C  C570  1  0.563771  0.972315  0.973668  1
  C  C571  1  0.489921  0.974548  0.564000  1
  C  C572  1  0.488854  0.561855  0.974026  1
  C  C573  1  0.489979  0.971407  0.974239  1
  C  C574  1  0.974537  0.490973  0.971528  1
  C  C575  1  0.562880  0.487665  0.974496  1
  C  C576  1  0.970805  0.490443  0.563904  1
  C  C577  1  0.437334  0.026724  0.511126  1
  C  C578  1  0.028227  0.027216  0.509281  1
  C  C579  1  0.024345  0.437136  0.511191  1
  C  C580  1  0.975466  0.974404  0.487906  1
  C  C581  1  0.564174  0.974346  0.490032  1
  C  C582  1  0.971226  0.564110  0.489619  1
  C  C583  1  0.435953  0.509270  0.027077  1
  C  C584  1  0.027130  0.511851  0.024899  1
  C  C585  1  0.024306  0.510857  0.437110  1
  C  C586  1  0.511307  0.027486  0.437128  1
  C  C587  1  0.509884  0.434994  0.026672  1
  C  C588  1  0.510811  0.024132  0.027512  1
  O  O589  1  0.045641  0.452205  0.994266  1
  O  O590  1  0.998558  0.045222  0.449511  1
  O  O591  1  0.450956  0.995572  0.043887  1
  O  O592  1  0.492052  0.004084  0.550037  1
  O  O593  1  0.491165  0.547614  0.956453  1
  O  O594  1  0.492047  0.953889  0.003834  1
  O  O595  1  0.004127  0.493001  0.953958  1
  O  O596  1  0.548519  0.489804  0.004082  1
  O  O597  1  0.953567  0.491983  0.549803  1
  O  O598  1  0.451526  0.044270  0.508953  1
  O  O599  1  0.045959  0.997907  0.506482  1
  O  O600  1  0.995013  0.451242  0.508533  1
  O  O601  1  0.045418  0.997917  0.449011  1
  O  O602  1  0.998489  0.451913  0.041297  1
  O  O603  1  0.451140  0.042654  0.996779  1
  O  O604  1  0.491035  0.547698  0.003570  1
  O  O605  1  0.492335  0.957072  0.549577  1
  O  O606  1  0.492132  0.000972  0.956724  1
  O  O607  1  0.004858  0.956777  0.490514  1
  O  O608  1  0.549820  0.003827  0.492424  1
  O  O609  1  0.953490  0.549911  0.492169  1
  O  O610  1  0.450074  0.507044  0.044707  1
  O  O611  1  0.044825  0.509813  0.995323  1
  O  O612  1  0.994580  0.509166  0.451039  1
  O  O613  1  0.957270  0.550694  0.001182  1
  O  O614  1  0.005151  0.956985  0.547920  1
  O  O615  1  0.549449  0.001940  0.956326  1
  O  O616  1  0.509170  0.997898  0.451345  1
  O  O617  1  0.507501  0.449088  0.044416  1
  O  O618  1  0.508569  0.041898  0.998006  1
  O  O619  1  0.997658  0.509389  0.042335  1
  O  O620  1  0.450235  0.506922  0.997588  1
  O  O621  1  0.041833  0.508313  0.451552  1
  O  O622  1  0.550140  0.956764  0.492049  1
  O  O623  1  0.958019  0.004106  0.489669  1
  O  O624  1  0.000899  0.549893  0.491541  1
  O  O625  1  0.957760  0.003769  0.547607  1
  O  O626  1  0.004311  0.550572  0.954056  1
  O  O627  1  0.549715  0.954563  0.003134  1
  O  O628  1  0.507839  0.449286  0.997053  1
  O  O629  1  0.509181  0.045036  0.451257  1
  O  O630  1  0.508640  0.994559  0.044848  1
  O  O631  1  0.998512  0.044626  0.507536  1
  O  O632  1  0.451509  0.997214  0.508881  1
  O  O633  1  0.041489  0.451416  0.509560  1
  O  O634  1  0.548847  0.489973  0.956740  1
  O  O635  1  0.957082  0.493204  0.001087  1
  O  O636  1  0.000209  0.493007  0.549645  1
